%nproc=1
%NoSave
%Mem=1900MB
#P OB98/GEN NMR

erre ene a

0 1
  C      282.313    -134.249     -61.575
  O      281.763    -133.741     -60.377
  H      283.375    -134.453     -61.416
  H      282.214    -133.516     -62.381
  H      281.812    -135.179     -61.854
  P      280.229    -133.275     -60.424
  C      278.936    -131.942     -62.242
  O      280.136    -132.085     -61.493
  C      279.240    -131.246     -63.565
  O      280.439    -131.809     -64.150
  C      278.157    -131.419     -64.621
  O      277.053    -130.552     -64.418
  C      278.930    -131.084     -65.884
  O      278.979    -129.671     -66.118
  C      280.332    -131.647     -65.578
  N      280.580    -132.896     -66.294
  C      281.528    -132.829     -67.313
  O      282.131    -131.798     -67.609
  N      281.733    -133.986     -68.012
  C      281.063    -135.160     -67.831
  O      281.256    -136.145     -68.532
  C      280.062    -135.167     -66.752
  C      279.866    -134.049     -66.045
  O      280.028    -132.541     -59.018
  O      279.242    -134.378     -60.626
  H      279.498    -133.104     -58.424
  H      279.376    -129.558     -67.005
  H      282.416    -133.959     -68.752
  H      279.510    -136.082     -66.582
  H      279.124    -134.026     -65.253
  H      281.106    -130.926     -65.873
  H      278.468    -131.539     -66.755
  H      277.835    -132.466     -64.666
  H      279.420    -130.181     -63.366
  H      278.221    -131.335     -61.678
  H      278.501    -132.932     -62.409
  P      275.630    -131.007     -65.007
  C      274.960    -131.753     -67.439
  O      275.781    -130.954     -66.601
  O      274.739    -129.729     -64.639
  O      275.148    -132.299     -64.442
  H      275.275    -128.919     -64.584
  H      275.214    -131.574     -68.463
  H      273.933    -131.501     -67.278
  H      275.114    -132.786     -67.208

 6  7  8  9  10  11  12  13  14  15  16  27  31  32  33  34  35 0
 6-311+G(2d,p)
 ****
 36  37 0
 6-311+G(2d,p)
 ****
 1  2  3  4  5  17  18  19  20  21  22  23  24  25 0
 3-21G
 ****
 26  28  29  30  38  39  40  41  42  43  44  45 0
 3-21G
 ****


