%nproc=1
%NoSave
%Mem=1900MB
#P OB98/GEN NMR

erre ene a

0 1
  C      -62.920     217.104    -104.290
  O      -63.917     217.375    -103.311
  P      -63.874     216.568    -101.927
  C      -64.600     217.152     -99.452
  O      -64.786     217.301    -100.840
  C      -65.422     218.228     -98.708
  O      -64.704     219.484     -98.696
  C      -66.781     218.490     -99.353
  O      -67.772     217.599     -98.884
  C      -67.035     219.937     -98.960
  O      -67.472     220.018     -97.597
  C      -65.616     220.545     -99.110
  N      -65.199     221.021    -100.446
  C      -65.790     222.164    -100.986
  O      -66.658     222.827    -100.428
  N      -65.334     222.549    -102.224
  C      -64.261     222.034    -102.886
  O      -63.854     222.454    -103.961
  C      -63.577     220.922    -102.203
  C      -64.074     220.472    -101.045
  O      -62.385     216.789    -101.399
  O      -64.216     215.108    -102.057
  H      -68.071     219.262     -97.437
  H      -61.903     215.942    -101.370
  H      -65.801     223.334    -102.658
  H      -62.692     220.513    -102.672
  H      -63.576     219.652    -100.534
  H      -65.480     221.377     -98.418
  H      -67.830     220.374     -99.565
  H      -66.700     218.448    -100.448
  H      -65.556     217.897     -97.671
  H      -63.543     217.248     -99.187
  H      -64.913     216.152     -99.143
  P      -68.610     216.716     -99.930
  C      -69.430     214.297     -99.730
  O      -69.266     215.528     -99.065
  O      -67.882     216.288    -101.160
  O      -69.879     217.634    -100.275
  H      -69.729     218.148    -101.101
  H      -69.736     213.538     -98.994
  H      -68.490     213.977    -100.196
  H      -70.210     214.382    -100.493
  H      -63.087     217.720    -105.149
  H      -62.970     216.074    -104.575
  H      -61.953     217.315    -103.882

 3  4  5  6  7  8  9  10  11  12  13  23  28  29  30  31  32 0
 6-311+G(2d,p)
 ****
 33  34 0
 6-311+G(2d,p)
 ****
 1  2  14  15  16  17  18  19  20  21  22  24  25  26  27 0
 3-21G
 ****
 35  36  37  38  39  40  41  42  43  44  45 0
 3-21G
 ****


