%nproc=1
%NoSave
%Mem=1900MB
#P OB98/GEN NMR

erre ene a

0 1
  C     -195.653      58.630     362.027
  O     -194.438      59.162     362.523
  H     -196.435      59.388     362.127
  H     -195.954      57.748     362.598
  H     -195.547      58.369     360.971
  P     -193.170      58.185     362.631
  C     -193.746      57.800     365.124
  O     -193.488      57.204     363.857
  C     -194.957      57.140     365.777
  O     -196.083      57.162     364.875
  C     -194.729      55.673     366.120
  O     -193.925      55.545     367.274
  C     -196.158      55.187     366.257
  O     -196.706      55.536     367.536
  C     -196.863      55.968     365.123
  N     -197.013      55.181     363.904
  C     -198.246      54.538     363.737
  O     -199.130      54.656     364.583
  N     -198.429      53.758     362.622
  C     -197.481      53.645     361.745
  N     -197.728      52.859     360.663
  C     -196.174      54.316     361.877
  C     -196.009      55.058     362.971
  O     -191.822      58.832     362.689
  O     -193.323      57.231     361.354
  H     -196.134      55.102     368.199
  H     -192.866      57.614     360.583
  H     -195.415      54.198     361.118
  H     -195.077      55.586     363.147
  H     -197.857      56.301     365.443
  H     -196.224      54.106     366.154
  H     -194.275      55.155     365.269
  H     -195.227      57.718     366.670
  H     -198.637      52.408     360.619
  H     -193.944      58.862     364.948
  H     -197.102      52.767     359.878
  H     -192.871      57.714     365.779
  P     -192.522      54.768     367.207
  C     -193.503      53.080     368.894
  O     -192.851      53.257     367.638
  O     -191.400      55.418     367.947
  O     -192.251      54.641     365.632
  H     -191.976      55.505     365.243
  H     -193.667      52.037     369.067
  H     -194.443      53.592     368.883
  H     -192.889      53.479     369.674

 6  7  8  9  10  11  12  13  14  15  16  26  30  31  32  33  35 0
 6-311+G(2d,p)
 ****
 37  38 0
 6-311+G(2d,p)
 ****
 1  2  3  4  5  17  18  19  20  21  22  23  24  25 0
 3-21G
 ****
 27  28  29  34  36  39  40  41  42  43  44  45  46 0
 3-21G
 ****


