%nproc=1
%NoSave
%Mem=1900MB
#P OB98/GEN NMR

erre ene a

0 1
  C      148.251       3.688     -29.716
  O      149.145       4.128     -30.740
  P      148.812       3.664     -32.239
  C      150.603       1.799     -32.405
  O      149.220       2.121     -32.400
  C      150.876       0.467     -33.115
  O      152.294       0.157     -33.108
  C      150.149      -0.722     -32.484
  O      149.811      -1.626     -33.538
  C      151.221      -1.359     -31.621
  O      150.908      -2.718     -31.328
  C      152.460      -1.143     -32.505
  N      153.717      -1.239     -31.765
  C      154.266      -2.513     -31.609
  O      153.661      -3.505     -32.022
  N      155.463      -2.643     -30.952
  C      156.036      -1.596     -30.447
  N      157.220      -1.789     -29.805
  C      155.464      -0.239     -30.537
  C      154.318      -0.137     -31.205
  O      149.902       4.440     -33.118
  O      147.422       4.002     -32.673
  H      151.500      -3.018     -30.605
  H      149.467       4.895     -33.863
  H      155.967       0.602     -30.083
  H      153.822       0.815     -31.327
  H      152.491      -1.885     -33.314
  H      151.322      -0.812     -30.676
  H      149.246      -0.440     -31.934
  H      150.569       0.572     -34.163
  H      157.584      -2.734     -29.771
  H      150.972       1.737     -31.380
  H      157.750      -1.048     -29.374
  H      151.156       2.616     -32.879
  P      148.408      -1.431     -34.286
  C      147.244      -3.495     -33.298
  O      147.324      -2.083     -33.301
  O      148.500      -2.546     -35.437
  O      148.084      -0.091     -34.854
  H      147.721      -2.483     -36.019
  H      146.563      -3.805     -32.502
  H      148.228      -3.934     -33.112
  H      146.848      -3.850     -34.254
  H      148.581       4.062     -28.769
  H      148.236       2.618     -29.691
  H      147.267       4.054     -29.920

 3  4  5  6  7  8  9  10  11  12  13  21  23  27  28  29  30  32 0
 6-311+G(2d,p)
 ****
 34  35 0
 6-311+G(2d,p)
 ****
 1  2  14  15  16  17  18  19  20  22  24  25  26 0
 3-21G
 ****
 31  33  36  37  38  39  40  41  42  43  44  45  46 0
 3-21G
 ****


