%nproc=1
%NoSave
%Mem=1900MB
#P OB98/GEN NMR

erre ene a

0 1
  C     -529.743     -22.942     627.630
  O     -529.404     -21.544     627.738
  P     -527.945     -21.109     627.216
  C     -527.386     -19.666     629.336
  O     -527.644     -19.713     627.944
  C     -527.628     -18.245     629.866
  O     -526.621     -17.340     629.344
  C     -528.963     -17.664     629.481
  O     -530.031     -18.227     630.237
  C     -528.725     -16.181     629.744
  O     -528.861     -15.896     631.157
  C     -527.234     -16.022     629.321
  N     -527.087     -15.381     628.017
  C     -527.626     -14.104     627.913
  O     -528.209     -13.542     628.833
  N     -527.461     -13.496     626.693
  C     -526.873     -14.024     625.589
  O     -526.748     -13.442     624.531
  C     -526.372     -15.407     625.750
  C     -526.489     -16.010     626.937
  O     -528.274     -20.732     625.697
  O     -526.917     -22.174     627.390
  H     -529.142     -20.312     625.582
  H     -529.760     -16.184     631.419
  H     -527.828     -12.553     626.604
  H     -525.920     -15.874     624.890
  H     -526.125     -17.034     627.074
  H     -526.686     -15.428     630.064
  H     -529.414     -15.536     629.211
  H     -529.148     -17.820     628.404
  H     -527.524     -18.283     630.960
  H     -526.356     -19.964     629.542
  H     -528.030     -20.396     629.828
  P     -531.433     -18.445     629.473
  C     -533.159     -18.237     631.440
  O     -532.429     -19.076     630.549
  O     -531.079     -19.678     628.511
  O     -531.936     -17.224     628.755
  H     -530.559     -20.379     628.970
  H     -534.017     -18.789     631.831
  H     -533.503     -17.341     630.937
  H     -532.508     -17.967     632.274
  H     -530.732     -23.100     628.008
  H     -529.047     -23.523     628.199
  H     -529.702     -23.241     626.603

 3  4  5  6  7  8  9  10  11  12  13  24  28  29  30  31  32 0
 6-311+G(2d,p)
 ****
 33  34 0
 6-311+G(2d,p)
 ****
 1  2  14  15  16  17  18  19  20  21  22  23  25  26  27 0
 3-21G
 ****
 35  36  37  38  39  40  41  42  43  44  45 0
 3-21G
 ****


