%nproc=1
%NoSave
%Mem=1900MB
#P OB98/GEN NMR

erre ene a

0 1
  C     -124.715      -5.917    -432.618
  O     -124.363      -6.265    -433.942
  H     -123.962      -5.230    -432.223
  H     -124.741      -6.810    -431.987
  H     -125.688      -5.420    -432.601
  P     -125.340      -7.292    -434.694
  C     -125.385      -6.160    -437.027
  O     -126.093      -6.445    -435.829
  C     -125.369      -4.655    -437.293
  O     -124.705      -3.953    -436.217
  C     -124.662      -4.253    -438.581
  O     -125.519      -4.384    -439.700
  C     -124.308      -2.801    -438.282
  O     -125.434      -1.926    -438.498
  C     -123.939      -2.860    -436.792
  N     -119.515      -0.512    -436.152
  C     -120.782       0.008    -436.328
  N     -120.875       1.353    -436.395
  N     -121.859      -0.725    -436.439
  C     -121.609      -2.054    -436.386
  C     -120.399      -2.690    -436.196
  C     -119.221      -1.865    -436.047
  O     -118.082      -2.262    -435.826
  N     -120.553      -4.053    -436.184
  C     -121.843      -4.242    -436.398
  N     -122.520      -3.060    -436.545
  O     -126.493      -7.569    -433.617
  O     -124.705      -8.560    -435.153
  H     -125.219      -1.039    -438.164
  H     -126.836      -8.473    -433.741
  H     -118.727       0.104    -436.056
  H     -122.327      -5.206    -436.457
  H     -124.229      -1.946    -436.259
  H     -123.505      -2.441    -438.928
  H     -120.084       1.925    -436.650
  H     -123.739      -4.832    -438.716
  H     -121.798       1.740    -436.547
  H     -126.413      -4.313    -437.305
  H     -125.877      -6.666    -437.861
  H     -124.358      -6.535    -436.934
  P     -125.073      -5.398    -440.865
  C     -127.577      -5.982    -441.250
  O     -126.261      -6.462    -441.019
  O     -123.901      -6.252    -440.185
  O     -124.629      -4.738    -442.129
  H     -123.374      -6.703    -440.869
  H     -128.250      -6.810    -441.329
  H     -127.597      -5.418    -442.159
  H     -127.876      -5.356    -440.436

 6  7  8  9  10  11  12  13  14  15  26  29  33  34 0
 6-311+G(2d,p)
 ****
 36  38  39  40  41 0
 6-311+G(2d,p)
 ****
 1  2  3  4  5  16  17  18  19  20  21  22  23  24  25 0
 3-21G
 ****
 27  28  30  31  32  35  37  42  43  44  45  46  47 0
 3-21G
 ****
 48  49 0
 3-21G
 ****


