%nproc=1
%NoSave
%Mem=1900MB
#P OB98/GEN NMR

erre ene a

0 1
  C     -842.040    1272.047     -66.667
  O     -840.930    1272.903     -66.393
  P     -840.732    1273.575     -64.949
  C     -842.644    1275.275     -64.799
  O     -842.206    1273.966     -64.462
  C     -843.496    1275.849     -63.654
  O     -844.476    1274.849     -63.265
  C     -842.756    1276.195     -62.385
  O     -842.155    1277.486     -62.376
  C     -843.891    1276.180     -61.371
  O     -844.643    1277.398     -61.450
  C     -844.737    1274.993     -61.851
  N     -846.201    1271.760     -58.150
  C     -846.760    1272.900     -58.643
  N     -846.282    1273.724     -59.605
  C     -845.162    1273.226     -60.127
  C     -844.476    1272.084     -59.765
  C     -845.058    1271.316     -58.739
  N     -844.495    1270.144     -58.251
  N     -843.328    1271.923     -60.516
  C     -843.338    1272.943     -61.340
  N     -844.431    1273.749     -61.161
  O     -839.719    1274.680     -64.920
  O     -840.354    1272.350     -64.001
  H     -844.964    1277.486     -62.366
  H     -839.929    1272.685     -63.161
  H     -847.710    1273.204     -58.171
  H     -842.571    1273.142     -62.089
  H     -845.818    1275.175     -61.734
  H     -843.543    1276.091     -60.337
  H     -842.035    1275.414     -62.111
  H     -844.043    1276.712     -64.038
  H     -843.272    1275.205     -65.690
  H     -845.055    1269.610     -57.589
  H     -843.740    1269.737     -58.767
  H     -841.803    1275.924     -65.007
  P     -840.751    1277.634     -61.571
  C     -841.243    1278.998     -59.408
  O     -841.144    1277.731     -60.031
  O     -839.876    1278.703     -62.109
  O     -840.114    1276.172     -61.705
  H     -840.586    1275.469     -61.219
  H     -841.671    1278.867     -58.393
  H     -841.895    1279.670     -59.966
  H     -840.254    1279.453     -59.299
  H     -841.986    1271.706     -67.680
  H     -842.952    1272.587     -66.520
  H     -842.013    1271.206     -66.006

 3  4  5  6  7  8  9  10  11  12  22  25  29  30  31  32 0
 6-311+G(2d,p)
 ****
 33  36  37 0
 6-311+G(2d,p)
 ****
 1  2  13  14  15  16  17  18  19  20  21  23  24  26 0
 3-21G
 ****
 27  28  34  35  38  39  40  41  42  43  44  45  46  47  48 0
 3-21G
 ****


