%nproc=1
%NoSave
%Mem=1900MB
#P OB98/GEN NMR

erre ene a

0 1
  C     -180.785    -174.009    -182.876
  O     -179.372    -173.931    -182.879
  H     -181.164    -173.499    -181.986
  H     -181.104    -175.055    -182.846
  H     -181.191    -173.522    -183.765
  P     -178.622    -174.681    -184.083
  C     -178.134    -172.492    -185.382
  O     -178.799    -173.746    -185.376
  C     -177.965    -171.983    -186.811
  O     -177.522    -170.610    -186.817
  C     -176.962    -172.772    -187.644
  O     -177.562    -173.930    -188.200
  C     -176.581    -171.743    -188.700
  O     -177.582    -171.670    -189.737
  C     -176.548    -170.443    -187.883
  N     -171.899    -168.799    -188.965
  C     -172.952    -169.105    -189.801
  N     -172.730    -168.984    -191.130
  N     -174.123    -169.509    -189.380
  C     -174.186    -169.642    -188.035
  C     -173.215    -169.373    -187.098
  C     -171.942    -168.875    -187.577
  O     -170.999    -168.508    -186.883
  N     -173.667    -169.615    -185.827
  C     -174.897    -170.062    -185.997
  N     -175.257    -170.101    -187.320
  O     -179.575    -175.929    -184.398
  O     -177.230    -175.127    -183.792
  H     -177.316    -171.001    -190.391
  H     -179.020    -176.700    -184.620
  H     -171.032    -168.465    -189.344
  H     -175.566    -170.357    -185.201
  H     -176.868    -169.578    -188.479
  H     -175.643    -172.002    -189.193
  H     -171.796    -168.965    -191.516
  H     -176.074    -173.030    -187.053
  H     -173.479    -169.279    -191.742
  H     -178.955    -172.001    -187.285
  H     -177.148    -172.611    -184.919
  H     -178.717    -171.772    -184.799
  P     -176.605    -175.061    -188.808
  C     -175.439    -175.868    -186.631
  O     -175.310    -175.173    -187.865
  O     -176.042    -174.375    -190.139
  O     -177.285    -176.353    -189.118
  H     -176.476    -174.763    -190.922
  H     -174.501    -175.859    -186.117
  H     -175.732    -176.879    -186.820
  H     -176.181    -175.388    -186.027

 6  7  8  9  10  11  12  13  14  15  26  29  33  34 0
 6-311+G(2d,p)
 ****
 36  38  39  40  41 0
 6-311+G(2d,p)
 ****
 1  2  3  4  5  16  17  18  19  20  21  22  23  24  25 0
 3-21G
 ****
 27  28  30  31  32  35  37  42  43  44  45  46  47 0
 3-21G
 ****
 48  49 0
 3-21G
 ****


