%nproc=1
%NoSave
%Mem=1900MB
#P OB98/GEN NMR

erre ene a

0 1
  C       -4.298     314.757     -45.343
  O       -4.217     315.609     -46.466
  H       -4.208     313.721     -45.684
  H       -5.262     314.877     -44.843
  H       -3.486     314.963     -44.639
  P       -4.187     317.194     -46.232
  C       -1.745     316.720     -45.560
  O       -2.906     317.505     -45.319
  C       -0.757     316.889     -44.410
  O        0.460     316.159     -44.684
  C       -0.329     318.332     -44.171
  O       -1.351     319.059     -43.519
  C        0.936     318.116     -43.356
  O        0.623     317.822     -41.986
  C        1.544     316.874     -44.051
  N        2.588     317.219     -45.019
  C        3.852     317.465     -44.495
  O        4.107     317.410     -43.295
  N        4.812     317.828     -45.405
  C        4.607     318.048     -46.737
  O        5.435     318.581     -47.468
  C        3.272     317.698     -47.242
  C        2.333     317.320     -46.372
  O       -5.464     317.805     -45.760
  O       -3.755     317.775     -47.663
  H       -4.545     318.110     -48.127
  H        1.467     317.589     -41.554
  H        5.721     318.055     -45.031
  H        3.087     317.798     -48.305
  H        1.333     317.086     -46.720
  H        1.982     316.195     -43.307
  H        1.586     318.994     -43.356
  H       -0.059     318.808     -45.122
  H       -1.208     316.462     -43.505
  H       -1.282     317.061     -46.493
  H       -2.039     315.671     -45.671
  P       -1.539     320.629     -43.770
  C       -3.727     320.128     -45.012
  O       -2.486     320.815     -45.051
  O       -0.276     321.421     -43.811
  O       -2.476     321.110     -42.562
  H       -2.049     321.863     -42.108
  H       -4.271     320.324     -45.912
  H       -4.295     320.466     -44.171
  H       -3.550     319.076     -44.924

 6  7  8  9  10  11  12  13  14  15  16  27  31  32  33  34  35 0
 6-311+G(2d,p)
 ****
 36  37 0
 6-311+G(2d,p)
 ****
 1  2  3  4  5  17  18  19  20  21  22  23  24  25 0
 3-21G
 ****
 26  28  29  30  38  39  40  41  42  43  44  45 0
 3-21G
 ****


