%nproc=1
%NoSave
%Mem=1900MB
#P OB98/GEN NMR

erre ene a

0 1
  C     -283.223    -213.232     138.357
  O     -282.247    -212.541     137.563
  P     -280.900    -211.951     138.209
  C     -280.210    -209.996     139.728
  O     -281.144    -210.456     138.756
  C     -280.731    -208.811     140.555
  O     -280.951    -207.645     139.713
  C     -282.050    -209.070     141.298
  O     -281.998    -208.280     142.488
  C     -283.079    -208.505     140.331
  O     -284.332    -208.230     140.933
  C     -282.335    -207.270     139.826
  N     -284.589    -203.351     137.405
  C     -284.029    -203.448     138.636
  N     -283.416    -204.508     139.191
  C     -283.370    -205.546     138.334
  C     -283.884    -205.592     137.047
  C     -284.529    -204.431     136.588
  N     -285.138    -204.336     135.354
  N     -283.670    -206.831     136.479
  C     -283.050    -207.527     137.414
  N     -282.841    -206.789     138.552
  O     -279.695    -212.082     137.332
  O     -280.695    -212.804     139.547
  H     -284.797    -207.577     140.381
  H     -279.762    -213.086     139.608
  H     -284.092    -202.555     139.251
  H     -282.751    -208.562     137.329
  H     -282.403    -206.447     140.548
  H     -283.249    -209.234     139.522
  H     -282.218    -210.125     141.534
  H     -279.941    -208.537     141.266
  H     -279.289    -209.699     139.212
  H     -285.654    -203.497     135.151
  H     -285.219    -205.168     134.784
  H     -279.958    -210.829     140.397
  P     -282.775    -208.709     143.819
  C     -284.858    -207.921     145.085
  O     -284.044    -207.739     143.942
  O     -281.928    -208.787     145.048
  O     -283.429    -210.128     143.466
  H     -283.661    -210.594     144.290
  H     -285.477    -208.813     144.962
  H     -285.502    -207.048     145.211
  H     -284.242    -208.032     145.989
  H     -284.037    -213.540     137.734
  H     -283.587    -212.579     139.122
  H     -282.773    -214.092     138.807

 3  4  5  6  7  8  9  10  11  12  22  25  29  30  31  32 0
 6-311+G(2d,p)
 ****
 33  36  37 0
 6-311+G(2d,p)
 ****
 1  2  13  14  15  16  17  18  19  20  21  23  24  26 0
 3-21G
 ****
 27  28  34  35  38  39  40  41  42  43  44  45  46  47  48 0
 3-21G
 ****


