%nproc=1
%NoSave
%Mem=1900MB
#P OB98/GEN NMR

erre ene a

0 1
  C      379.709     -45.257    -135.584
  O      380.199     -46.585    -135.799
  P      379.562     -47.366    -137.052
  C      381.716     -48.559    -137.858
  O      380.425     -48.703    -137.287
  C      382.487     -49.877    -137.790
  O      382.876     -50.182    -136.418
  C      381.697     -51.090    -138.327
  O      382.659     -51.962    -138.973
  C      381.178     -51.717    -137.051
  O      380.720     -53.052    -137.206
  C      382.398     -51.524    -136.149
  N      384.296     -51.073    -131.421
  C      384.841     -50.842    -132.641
  N      384.262     -50.986    -133.854
  C      382.994     -51.435    -133.735
  C      382.315     -51.721    -132.560
  C      383.018     -51.532    -131.351
  N      382.488     -51.794    -130.121
  N      381.031     -52.180    -132.848
  C      380.984     -52.223    -134.168
  N      382.114     -51.699    -134.747
  O      379.930     -46.442    -138.309
  O      378.078     -47.591    -136.927
  H      380.574     -53.443    -136.316
  H      379.172     -45.879    -138.556
  H      385.858     -50.481    -132.637
  H      380.160     -52.614    -134.750
  H      383.204     -52.223    -136.398
  H      380.328     -51.127    -136.676
  H      380.917     -50.829    -139.051
  H      383.423     -49.756    -138.363
  H      382.274     -47.782    -137.337
  H      383.070     -51.634    -129.312
  H      381.542     -52.142    -130.022
  H      381.606     -48.206    -138.904
  P      382.512     -52.229    -140.545
  C      385.009     -51.707    -140.890
  O      383.990     -52.687    -141.004
  O      382.473     -50.715    -141.091
  O      381.364     -53.073    -140.974
  H      383.206     -50.183    -140.725
  H      385.960     -52.173    -141.143
  H      385.064     -51.341    -139.855
  H      384.809     -50.870    -141.573
  H      380.195     -44.831    -134.731
  H      378.653     -45.290    -135.413
  H      379.912     -44.658    -136.447

 3  4  5  6  7  8  9  10  11  12  22  25  29  30  31  32 0
 6-311+G(2d,p)
 ****
 33  36  37 0
 6-311+G(2d,p)
 ****
 1  2  13  14  15  16  17  18  19  20  21  23  24  26 0
 3-21G
 ****
 27  28  34  35  38  39  40  41  42  43  44  45  46  47  48 0
 3-21G
 ****


