%nproc=1
%NoSave
%Mem=1900MB
#P OB98/GEN NMR

erre ene a

0 1
  C     1169.213    2441.484     -49.751
  O     1170.093    2442.045     -48.789
  H     1169.801    2441.220     -50.644
  H     1168.461    2442.204     -50.038
  H     1168.756    2440.580     -49.356
  P     1169.483    2442.586     -47.410
  C     1170.380    2440.452     -46.291
  O     1169.256    2441.302     -46.474
  C     1169.923    2439.069     -45.744
  O     1169.156    2438.428     -46.832
  C     1171.090    2438.157     -45.387
  O     1170.975    2437.640     -44.040
  C     1171.148    2437.169     -46.521
  O     1171.722    2435.913     -46.214
  C     1169.713    2437.082     -47.014
  N     1169.566    2436.681     -48.417
  C     1169.240    2435.364     -48.645
  O     1169.067    2434.486     -47.780
  N     1169.144    2434.990     -49.959
  C     1169.299    2435.805     -51.035
  O     1169.170    2435.439     -52.213
  C     1169.666    2437.203     -50.744
  C     1169.794    2437.580     -49.463
  O     1168.306    2443.488     -47.549
  O     1170.700    2443.337     -46.715
  H     1172.660    2436.065     -46.008
  H     1170.606    2444.306     -46.811
  H     1168.895    2434.011     -50.156
  H     1169.821    2437.885     -51.547
  H     1170.019    2438.596     -49.187
  H     1169.145    2436.401     -46.416
  H     1171.789    2437.611     -47.321
  H     1172.028    2438.732     -45.347
  H     1169.231    2439.230     -44.904
  H     1171.047    2440.941     -45.559
  H     1170.908    2440.313     -47.220
  P     1171.562    2438.340     -42.733
  C     1169.153    2438.525     -41.688
  O     1170.372    2439.170     -42.053
  O     1172.844    2439.034     -42.934
  O     1171.790    2437.107     -41.719
  H     1172.553    2437.344     -41.193
  H     1168.488    2439.241     -41.252
  H     1169.358    2437.750     -40.979
  H     1168.699    2438.101     -42.559

 6  7  8  9  10  11  12  13  14  15  16  26  31  32  33  34  35 0
 6-311+G(2d,p)
 ****
 36  37 0
 6-311+G(2d,p)
 ****
 1  2  3  4  5  17  18  19  20  21  22  23  24  25 0
 3-21G
 ****
 27  28  29  30  38  39  40  41  42  43  44  45 0
 3-21G
 ****


