%nproc=1
%NoSave
%Mem=1900MB
#P OB98/GEN NMR

erre ene a

0 1
  C      179.490     118.715    -300.561
  O      179.108     119.614    -301.584
  H      180.484     118.324    -300.792
  H      178.789     117.877    -300.506
  H      179.531     119.228    -299.597
  P      177.675     120.322    -301.476
  C      178.256     122.569    -300.343
  O      177.956     121.898    -301.561
  C      179.567     123.333    -300.476
  O      180.670     122.418    -300.622
  C      179.619     124.269    -301.683
  O      178.949     125.485    -301.395
  C      181.122     124.435    -301.838
  O      181.616     125.346    -300.839
  C      181.621     123.010    -301.551
  N      184.306     121.908    -305.707
  C      184.490     122.908    -304.769
  N      185.514     123.760    -304.999
  N      183.730     123.067    -303.718
  C      182.708     122.184    -303.660
  C      182.412     121.164    -304.533
  C      183.295     120.960    -305.665
  O      183.176     120.078    -306.509
  N      181.256     120.517    -304.181
  C      180.875     121.122    -303.071
  N      181.715     122.151    -302.720
  O      176.825     119.922    -300.307
  O      176.973     119.995    -302.873
  H      181.073     126.154    -300.905
  H      176.434     119.185    -302.816
  H      184.915     121.850    -306.507
  H      180.004     120.853    -302.486
  H      182.603     123.002    -301.066
  H      181.412     124.830    -302.811
  H      185.935     123.854    -305.915
  H      179.227     123.791    -302.587
  H      185.636     124.527    -304.351
  H      179.730     123.887    -299.543
  H      178.332     121.808    -299.558
  H      177.451     123.263    -300.082
  P      178.175     126.297    -302.546
  C      175.875     125.459    -301.714
  O      176.718     126.583    -301.944
  O      178.176     125.639    -303.885
  O      178.845     127.746    -302.537
  H      179.635     127.818    -303.123
  H      174.940     125.791    -301.314
  H      176.346     124.797    -301.018
  H      175.706     124.945    -302.637

 6  7  8  9  10  11  12  13  14  15  26  29  33  34 0
 6-311+G(2d,p)
 ****
 36  38  39  40  41 0
 6-311+G(2d,p)
 ****
 1  2  3  4  5  16  17  18  19  20  21  22  23  24  25 0
 3-21G
 ****
 27  28  30  31  32  35  37  42  43  44  45  46  47 0
 3-21G
 ****
 48  49 0
 3-21G
 ****


