%nproc=1
%NoSave
%Mem=1900MB
#P OB98/GEN NMR

erre ene a

0 1
  C     -889.770    -128.777     -65.895
  O     -891.090    -128.477     -66.282
  H     -889.130    -127.935     -66.167
  H     -889.410    -129.675     -66.415
  H     -889.720    -128.929     -64.814
  P     -892.190    -129.613     -66.006
  C     -893.190    -129.572     -68.383
  O     -893.400    -129.257     -67.013
  C     -894.130    -128.756     -69.269
  O     -895.460    -128.813     -68.710
  C     -893.740    -127.277     -69.377
  O     -893.980    -126.818     -70.705
  C     -894.690    -126.585     -68.415
  O     -894.910    -125.218     -68.750
  C     -895.930    -127.469     -68.521
  N     -899.120    -124.458     -65.915
  C     -898.560    -124.338     -67.139
  N     -897.740    -125.196     -67.763
  C     -897.530    -126.301     -67.012
  C     -898.030    -126.562     -65.748
  C     -898.860    -125.571     -65.193
  N     -899.410    -125.671     -63.934
  N     -897.560    -127.775     -65.289
  C     -896.810    -128.247     -66.264
  N     -896.750    -127.380     -67.320
  O     -892.590    -129.796     -64.578
  O     -891.530    -130.889     -66.700
  H     -895.060    -125.161     -69.716
  H     -891.150    -130.665     -67.569
  H     -898.810    -123.421     -67.682
  H     -896.280    -129.193     -66.248
  H     -896.570    -127.193     -69.370
  H     -894.270    -126.622     -67.401
  H     -892.690    -127.105     -69.112
  H     -894.170    -129.221     -70.262
  H     -893.360    -130.640     -68.555
  H     -900.000    -124.922     -63.611
  H     -899.240    -126.506     -63.380
  H     -892.140    -129.345     -68.630
  P     -892.740    -126.666     -71.697
  C     -894.000    -124.816     -73.006
  O     -893.260    -126.039     -73.085
  O     -891.850    -127.851     -71.831
  O     -891.930    -125.421     -71.058
  H     -890.980    -125.585     -71.156
  H     -894.285    -124.508     -73.990
  H     -893.391    -124.059     -72.558
  H     -894.877    -124.967     -72.411

 6  7  8  9  10  11  12  13  14  15  25  28  32  33  34  35 0
 6-311+G(2d,p)
 ****
 36  39  40 0
 6-311+G(2d,p)
 ****
 1  2  3  4  5  16  17  18  19  20  21  22  23  24 0
 3-21G
 ****
 26  27  29  30  31  37  38  41  42  43  44  45  46  47 0
 3-21G
 ****
 48 0
 3-21G
 ****


