%nproc=1
%NoSave
%Mem=1900MB
#P OB98/GEN NMR

erre ene a

0 1
  C      304.247    -182.852     260.335
  O      303.679    -181.806     259.568
  H      303.575    -183.714     260.300
  H      304.363    -182.533     261.375
  H      305.216    -183.138     259.922
  P      304.524    -180.447     259.478
  C      305.380    -180.987     257.077
  O      305.709    -180.727     258.434
  C      306.555    -181.666     256.360
  O      306.901    -182.886     257.086
  C      306.249    -182.084     254.916
  O      307.485    -182.056     254.176
  C      305.796    -183.522     255.094
  O      305.771    -184.205     253.862
  C      306.812    -183.977     256.141
  N      308.070    -188.875     256.916
  C      308.690    -187.882     256.234
  N      308.299    -186.602     256.081
  C      307.149    -186.370     256.742
  C      306.411    -187.277     257.489
  C      306.915    -188.588     257.557
  N      306.283    -189.600     258.244
  N      305.286    -186.670     258.021
  C      305.349    -185.419     257.602
  N      306.450    -185.196     256.825
  O      305.270    -180.384     260.894
  O      303.730    -179.210     259.212
  H      306.560    -183.977     253.320
  H      304.760    -179.832     261.515
  H      309.616    -188.161     255.742
  H      304.622    -184.645     257.823
  H      307.808    -184.122     255.704
  H      304.780    -183.562     255.497
  H      305.519    -181.437     254.423
  H      307.434    -181.011     256.415
  H      305.150    -180.034     256.585
  H      304.503    -181.641     257.032
  H      306.701    -190.518     258.233
  H      305.411    -189.407     258.714
  P      307.794    -180.804     253.212
  C      309.546    -179.600     254.738
  O      308.269    -179.561     254.110
  O      306.317    -180.352     252.777
  O      308.633    -181.107     252.009
  H      306.351    -179.926     251.897
  H      309.699    -178.698     255.292
  H      310.308    -179.694     253.992
  H      309.592    -180.438     255.402

 6  7  8  9  10  11  12  13  14  15  25  28  32  33  34  35 0
 6-311+G(2d,p)
 ****
 36  37  40 0
 6-311+G(2d,p)
 ****
 1  2  3  4  5  16  17  18  19  20  21  22  23  24 0
 3-21G
 ****
 26  27  29  30  31  38  39 41  42  43  44  45  46  47  48 0
 3-21G
 ****


