%nproc=1
%NoSave
%Mem=1900MB
#P OB98/GEN NMR

erre ene a

0 1
  C      458.387     420.495      13.430
  O      458.088     419.114      13.513
  H      457.470     421.061      13.589
  H      458.781     420.738      12.441
  H      459.111     420.775      14.201
  P      459.286     418.065      13.307
  C      461.120     418.092      11.488
  O      459.729     418.205      11.771
  C      461.390     418.423      10.028
  O      460.884     419.738       9.715
  C      462.869     418.434       9.653
  O      463.330     417.112       9.429
  C      462.836     419.284       8.398
  O      462.335     418.495       7.297
  C      461.806     420.366       8.780
  N      462.549     425.370       8.385
  C      461.973     424.486       7.489
  N      461.570     424.996       6.307
  N      461.818     423.205       7.726
  C      462.324     422.819       8.926
  C      462.932     423.607       9.884
  C      463.041     425.017       9.634
  O      463.536     425.847      10.408
  N      463.380     422.845      10.938
  C      463.010     421.612      10.635
  N      462.373     421.543       9.415
  O      459.003     416.652      13.725
  O      460.508     418.704      14.116
  H      462.910     417.712       7.226
  H      460.543     418.366      15.030
  H      462.652     426.341       8.132
  H      463.163     420.742      11.264
  H      461.225     420.710       7.915
  H      463.815     419.663       8.104
  H      461.925     425.881       5.968
  H      463.479     418.954      10.408
  H      461.196     424.354       5.619
  H      460.832     417.710       9.410
  H      461.412     417.057      11.706
  H      461.696     418.763      12.139
  P      464.900     416.756       9.473
  C      466.822     418.029       8.303
  O      465.520     417.471       8.178
  O      465.216     415.309       9.589
  O      465.479     417.642      10.671
  H      465.432     417.199      11.553
  H      467.111     418.471       7.373
  H      467.517     417.258       8.563
  H      466.817     418.778       9.067

 6  7  8  9  10  11  12  13  14  15  26  29  33  34 0
 6-311+G(2d,p)
 ****
 36  38  39  40  41 0
 6-311+G(2d,p)
 ****
 1  2  3  4  5  16  17  18  19  20  21  22  23  24  25 0
 3-21G
 ****
 27  28  30  31  32  35  37  42  43  44  45  46  47 0
 3-21G
 ****
 48  49 0
 3-21G
 ****


