%nproc=1
%NoSave
%Mem=1900MB
#P OB98/GEN NMR

erre ene a

0 1
  C      -12.171    -174.452     174.297
  O      -11.109    -174.147     173.420
  H      -11.973    -173.979     175.262
  H      -12.232    -175.534     174.442
  H      -13.122    -174.078     173.913
  P      -11.290    -174.437     171.857
  C      -11.909    -172.085     170.993
  O      -10.907    -173.088     171.078
  C      -11.814    -171.332     169.660
  O      -12.970    -170.467     169.525
  C      -10.575    -170.432     169.612
  O      -10.107    -170.235     168.281
  C      -11.098    -169.112     170.152
  O      -10.316    -167.990     169.746
  C      -12.523    -169.103     169.602
  N      -14.017    -164.462     171.090
  C      -12.885    -164.833     170.393
  N      -12.041    -163.833     170.042
  N      -12.594    -166.070     170.086
  C      -13.489    -166.969     170.560
  C      -14.636    -166.727     171.282
  C      -14.964    -165.350     171.585
  O      -15.942    -164.969     172.219
  N      -15.287    -167.895     171.596
  C      -14.535    -168.840     171.069
  N      -13.445    -168.327     170.409
  O      -12.880    -174.505     171.668
  O      -10.622    -175.679     171.348
  H      -10.677    -167.204     170.195
  H      -13.104    -175.007     170.865
  H      -14.209    -163.494     171.274
  H      -14.741    -169.901     171.124
  H      -12.542    -168.687     168.587
  H      -11.064    -169.151     171.244
  H      -12.130    -162.906     170.429
  H       -9.757    -170.808     170.223
  H      -11.082    -164.109     169.819
  H      -11.849    -172.041     168.825
  H      -11.749    -171.404     171.832
  H      -12.899    -172.526     171.117
  P       -9.313    -171.427     167.563
  C      -11.308    -172.927     166.684
  O      -10.221    -172.070     166.418
  O       -9.246    -172.566     168.681
  O       -7.953    -171.050     167.064
  H       -8.321    -172.729     168.946
  H      -11.759    -173.228     165.762
  H      -12.030    -172.412     167.283
  H      -10.960    -173.792     167.209

 6  7  8  9  10  11  12  13  14  15  26  29  33  34 0
 6-311+G(2d,p)
 ****
 36  38  39  40  41 0
 6-311+G(2d,p)
 ****
 1  2  3  4  5  16  17  18  19  20  21  22  23  24  25 0
 3-21G
 ****
 27  28  30  31  32  35  37  42  43  44  45  46  47 0
 3-21G
 ****
 48  49 0
 3-21G
 ****


