%nproc=1
%NoSave
%Mem=1900MB
#P OB98/GEN NMR

erre ene a

0 1
  C     -143.734    -130.716     -52.347
  O     -142.625    -130.466     -53.187
  H     -143.368    -130.995     -51.355
  H     -144.331    -131.540     -52.747
  H     -144.351    -129.817     -52.256
  P     -142.955    -130.063     -54.705
  C     -145.017    -130.631     -56.171
  O     -144.086    -131.089     -55.203
  C     -145.345    -131.743     -57.162
  O     -146.027    -132.831     -56.501
  C     -146.234    -131.312     -58.322
  O     -145.476    -130.696     -59.348
  C     -146.830    -132.646     -58.750
  O     -145.917    -133.387     -59.584
  C     -147.037    -133.353     -57.404
  N     -151.934    -134.453     -57.941
  C     -150.842    -134.868     -58.674
  N     -151.102    -135.653     -59.743
  N     -149.610    -134.538     -58.394
  C     -149.508    -133.724     -57.318
  C     -150.512    -133.258     -56.500
  C     -151.868    -133.658     -56.804
  O     -152.871    -133.378     -56.155
  N     -150.009    -132.470     -55.498
  C     -148.711    -132.428     -55.730
  N     -148.360    -133.160     -56.835
  O     -141.652    -130.536     -55.509
  O     -143.247    -128.619     -54.935
  H     -145.716    -132.866     -60.380
  H     -141.520    -129.948     -56.276
  H     -152.857    -134.757     -58.196
  H     -147.990    -131.886     -55.135
  H     -146.880    -134.435     -57.478
  H     -147.743    -132.511     -59.331
  H     -152.009    -135.659     -60.189
  H     -147.037    -130.652     -57.971
  H     -150.308    -135.943     -60.301
  H     -144.392    -132.140     -57.537
  H     -144.581    -129.784     -56.713
  H     -145.929    -130.297     -55.665
  P     -146.028    -129.317     -59.957
  C     -147.983    -128.654     -61.540
  O     -147.293    -129.699     -60.867
  O     -144.912    -128.914     -61.031
  O     -146.258    -128.239     -58.952
  H     -144.999    -127.970     -61.265
  H     -148.795    -129.066     -62.101
  H     -147.310    -128.152     -62.203
  H     -148.363    -127.957     -60.822

 6  7  8  9  10  11  12  13  14  15  26  29  33  34 0
 6-311+G(2d,p)
 ****
 36  38  39  40  41 0
 6-311+G(2d,p)
 ****
 1  2  3  4  5  16  17  18  19  20  21  22  23  24  25 0
 3-21G
 ****
 27  28  30  31  32  35  37  42  43  44  45  46  47 0
 3-21G
 ****
 48  49 0
 3-21G
 ****


