%nproc=1
%NoSave
%Mem=1900MB
#P OB98/GEN NMR

erre ene a

0 1
  C      105.396      60.321       0.421
  O      106.507      60.821       1.172
  P      107.977      60.531       0.595
  C      109.078      59.489       2.732
  O      108.958      60.605       1.861
  C      109.308      59.967       4.164
  O      108.125      60.628       4.678
  C      109.608      58.850       5.153
  O      110.930      58.361       4.994
  C      109.340      59.556       6.475
  O      110.469      60.360       6.852
  C      108.144      60.463       6.117
  N      106.871      59.954       6.611
  C      106.162      60.809       7.450
  O      106.575      61.917       7.786
  N      104.963      60.334       7.909
  C      104.432      59.106       7.641
  O      103.346      58.740       8.074
  C      105.250      58.229       6.790
  C      106.415      58.684       6.322
  O      108.263      61.881      -0.210
  O      108.049      59.281      -0.215
  H      107.880      62.667       0.215
  H      110.168      60.931       7.587
  H      104.428      60.944       8.508
  H      104.871      57.237       6.579
  H      107.034      58.050       5.694
  H      108.292      61.467       6.535
  H      109.150      58.854       7.293
  H      108.892      58.031       5.017
  H      110.131      60.694       4.153
  H      109.920      58.863       2.423
  H      108.170      58.883       2.658
  P      111.142      56.775       5.158
  C      112.822      57.042       7.142
  O      112.580      56.578       5.833
  O      111.361      56.334       3.635
  O      110.006      56.088       5.842
  H      111.957      56.927       3.150
  H      113.698      56.525       7.542
  H      111.971      56.849       7.800
  H      113.028      58.115       7.118
  H      104.484      60.584       0.915
  H      105.467      59.256       0.345
  H      105.406      60.750      -0.559

 3  4  5  6  7  8  9  10  11  12  13  24  28  29  30  31  32 0
 6-311+G(2d,p)
 ****
 33  34 0
 6-311+G(2d,p)
 ****
 1  2  14  15  16  17  18  19  20  21  22  23  25  26  27 0
 3-21G
 ****
 35  36  37  38  39  40  41  42  43  44  45 0
 3-21G
 ****


