%nproc=1
%NoSave
%Mem=1900MB
#P OB98/GEN NMR

erre ene a

0 1
  C       -4.073      72.615       8.341
  O       -5.429      72.530       8.786
  P       -5.670      72.693      10.364
  C       -5.891      70.195      11.036
  O       -5.106      71.379      11.088
  C       -5.145      69.020      11.673
  O       -4.817      69.263      13.052
  C       -5.939      67.719      11.654
  O       -5.857      67.120      10.374
  C       -5.240      66.916      12.741
  O       -4.066      66.250      12.230
  C       -4.844      67.995      13.759
  N       -5.802      66.246      18.422
  C       -4.904      65.795      17.473
  N       -4.137      64.743      17.825
  N       -4.773      66.326      16.285
  C       -5.601      67.376      16.072
  C       -6.511      67.932      16.941
  C       -6.651      67.332      18.248
  O       -7.415      67.710      19.131
  N       -7.132      69.026      16.387
  C       -6.687      69.047      15.143
  N       -5.709      68.108      14.919
  O       -7.259      72.566      10.510
  O       -5.171      73.990      10.911
  H       -3.410      66.919      11.964
  H       -7.639      73.432      10.751
  H       -5.866      65.795      19.316
  H       -7.017      69.733      14.380
  H       -3.832      67.826      14.150
  H       -5.884      66.130      13.144
  H       -4.184      64.284      18.721
  H       -6.982      67.911      11.938
  H       -3.469      64.400      17.147
  H       -4.206      68.887      11.119
  H       -6.138      69.959       9.999
  H       -6.840      70.382      11.552
  P       -7.219      66.909       9.555
  C       -7.157      64.321       9.782
  O       -7.861      65.520      10.038
  O       -6.704      66.599       8.068
  O       -8.141      68.081       9.574
  H       -7.247      67.101       7.428
  H       -7.397      63.598      10.566
  H       -6.074      64.480       9.766
  H       -7.476      63.919       8.816
  H       -4.038      72.492       7.279
  H       -3.495      71.845       8.808
  H       -3.671      73.571       8.603

 3  4  5  6  7  8  9  10  11  12  23  26  30  31 0
 6-311+G(2d,p)
 ****
 33  35  36  37  38 0
 6-311+G(2d,p)
 ****
 1  2  13  14  15  16  17  18  19  20  21  22  24  25 0
 3-21G
 ****
 27  28  29  32  34  39  40  41  42  43  44  45  46  47  48  49 0
 3-21G
 ****


