%nproc=1
%NoSave
%Mem=1900MB
#P OB98/GEN NMR

erre ene a

0 1
  C      198.266     244.796     110.445
  O      198.340     243.881     111.524
  P      199.779     243.620     112.186
  C      199.714     241.033     111.911
  O      200.334     242.259     111.542
  C      200.393     239.864     111.196
  O      200.265     239.996     109.767
  C      201.890     239.761     111.456
  O      202.182     239.126     112.693
  C      202.328     238.879     110.296
  O      202.040     237.500     110.590
  C      201.427     239.383     109.156
  N      205.399     240.154     106.121
  C      204.929     238.981     106.676
  N      205.649     237.866     106.436
  N      203.839     238.906     107.400
  C      203.223     240.102     107.567
  C      203.594     241.329     107.062
  C      204.806     241.398     106.272
  O      205.303     242.413     105.800
  N      202.712     242.309     107.436
  C      201.810     241.681     108.161
  N      202.098     240.347     108.305
  O      199.425     243.196     113.689
  O      200.706     244.786     112.135
  H      202.685     237.224     111.275
  H      200.214     243.278     114.252
  H      206.246     240.161     105.574
  H      200.943     242.149     108.611
  H      201.070     238.566     108.525
  H      203.400     238.946     110.092
  H      206.531     237.868     105.942
  H      202.379     240.738     111.377
  H      205.363     237.006     106.885
  H      199.882     238.944     111.500
  H      198.661     241.068     111.638
  H      199.791     240.907     112.995
  P      203.681     239.270     113.240
  C      204.069     236.699     113.262
  O      204.447     237.956     112.736
  O      203.515     239.034     114.816
  O      204.335     240.575     112.930
  H      204.229     239.482     115.306
  H      204.490     235.914     112.632
  H      202.981     236.590     113.281
  H      204.467     236.586     114.273
  H      197.253     244.869     110.108
  H      198.885     244.452     109.643
  H      198.604     245.758     110.769

 3  4  5  6  7  8  9  10  11  12  23  26  30  31 0
 6-311+G(2d,p)
 ****
 33  35  36  37  38 0
 6-311+G(2d,p)
 ****
 1  2  13  14  15  16  17  18  19  20  21  22  24  25 0
 3-21G
 ****
 27  28  29  32  34  39  40  41  42  43  44  45  46  47  48  49 0
 3-21G
 ****


