%nproc=1
%NoSave
%Mem=1900MB
#P OB98/GEN NMR

erre ene a

0 1
  C       90.839     127.532     -16.494
  O       90.544     128.524     -15.532
  H       90.919     127.978     -17.489
  H       91.794     127.067     -16.237
  H       90.060     126.764     -16.491
  P       89.226     129.400     -15.794
  C       87.762     127.965     -14.209
  O       88.309     129.245     -14.485
  C       87.023     127.985     -12.877
  O       87.963     128.072     -11.787
  C       86.078     129.166     -12.689
  O       84.848     128.976     -13.374
  C       85.889     129.137     -11.179
  O       84.915     128.135     -10.832
  C       87.279     128.714     -10.679
  N       88.020     132.101      -6.891
  C       87.106     131.117      -7.055
  N       86.962     130.265      -8.090
  C       87.900     130.487      -9.025
  C       88.894     131.451      -8.997
  C       88.933     132.290      -7.871
  N       89.858     133.300      -7.722
  N       89.682     131.372     -10.124
  C       89.175     130.378     -10.824
  N       88.091     129.816     -10.203
  O       88.431     128.557     -16.902
  O       89.468     130.802     -16.245
  H       84.107     128.344     -11.337
  H       87.982     129.176     -17.508
  H       86.396     130.997      -6.241
  H       89.560     130.030     -11.775
  H       87.208     127.972      -9.876
  H       85.540     130.088     -10.771
  H       86.558     130.108     -12.976
  H       86.482     127.035     -12.777
  H       88.568     127.226     -14.161
  H       89.960     133.732      -6.819
  H       90.544     133.429      -8.458
  H       87.078     127.691     -15.020
  P       84.173     130.266     -14.053
  C       84.321     129.051     -16.340
  O       83.494     129.735     -15.406
  O       85.435     131.100     -14.578
  O       83.307     131.077     -13.152
  H       85.203     132.046     -14.644
  H       83.736     128.758     -17.187
  H       84.739     128.182     -15.877
  H       85.110     129.699     -16.659

 6  7  8  9  10  11  12  13  14  15  25  28  32  33  34  35 0
 6-311+G(2d,p)
 ****
 36  39  40 0
 6-311+G(2d,p)
 ****
 1  2  3  4  5  16  17  18  19  20  21  22  23  24 0
 3-21G
 ****
 26  27  29  30  31  37  38  41  42  43  44  45  46  47  48 0
 3-21G
 ****


