%nproc=1
%NoSave
%Mem=1900MB
#P OB98/GEN NMR

erre ene a

0 1
  C      165.312    -455.580    -356.438
  O      165.092    -456.670    -357.341
  P      164.731    -458.100    -356.714
  C      162.316    -457.922    -357.661
  O      163.142    -458.186    -356.541
  C      160.922    -457.482    -357.203
  O      160.990    -456.351    -356.311
  C      160.009    -457.063    -358.352
  O      159.393    -458.176    -358.969
  C      158.972    -456.229    -357.608
  O      158.006    -457.114    -356.986
  C      159.812    -455.523    -356.534
  N      158.558    -450.622    -356.509
  C      157.886    -451.717    -355.986
  N      156.717    -451.463    -355.357
  N      158.330    -452.951    -356.072
  C      159.520    -453.041    -356.717
  C      160.268    -452.034    -357.278
  C      159.765    -450.679    -357.187
  O      160.292    -449.676    -357.641
  N      161.411    -452.517    -357.856
  C      161.373    -453.824    -357.620
  N      160.228    -454.190    -356.942
  O      165.251    -457.973    -355.205
  O      165.373    -459.263    -357.418
  H      158.517    -457.760    -356.471
  H      165.496    -458.849    -354.858
  H      158.164    -449.699    -356.415
  H      162.135    -454.525    -357.917
  H      159.284    -455.428    -355.584
  H      158.409    -455.571    -358.268
  H      156.345    -450.547    -355.208
  H      160.546    -456.430    -359.073
  H      156.233    -452.255    -354.935
  H      160.457    -458.325    -356.674
  H      162.234    -458.820    -358.284
  H      162.795    -457.162    -358.290
  P      160.010    -458.712    -360.356
  C      160.590    -460.990    -359.246
  O      161.059    -459.860    -359.952
  O      160.936    -457.492    -360.820
  O      159.015    -459.066    -361.395
  H      160.976    -457.447    -361.799
  H      161.390    -461.735    -359.209
  H      159.727    -461.434    -359.760
  H      160.314    -460.709    -358.225
  H      165.542    -454.696    -356.995
  H      166.129    -455.815    -355.788
  H      164.429    -455.415    -355.856

 3  4  5  6  7  8  9  10  11  12  23  26  30  31 0
 6-311+G(2d,p)
 ****
 33  35  36  37  38 0
 6-311+G(2d,p)
 ****
 1  2  13  14  15  16  17  18  19  20  21  22  24  25 0
 3-21G
 ****
 27  28  29  32  34  39  40  41  42  43  44  45  46  47  48  49 0
 3-21G
 ****


