%nproc=1
%NoSave
%Mem=1900MB
#P OB98/GEN NMR

erre ene a

0 1
  C      299.918     222.127    -264.457
  O      301.164     221.757    -265.059
  P      301.071     220.730    -266.291
  C      302.294     222.371    -267.887
  O      302.271     221.069    -267.309
  C      303.564     222.592    -268.717
  O      304.727     222.766    -267.861
  C      303.888     221.431    -269.671
  O      304.474     222.013    -270.847
  C      304.952     220.657    -268.915
  O      305.696     219.800    -269.779
  C      305.731     221.815    -268.301
  N      310.193     219.769    -267.118
  C      309.590     219.931    -268.344
  N      310.301     219.541    -269.425
  N      308.397     220.438    -268.510
  C      307.814     220.825    -267.337
  C      308.318     220.736    -266.055
  C      309.634     220.141    -265.900
  O      310.216     219.980    -264.832
  N      307.448     221.270    -265.140
  C      306.393     221.612    -265.863
  N      306.587     221.429    -267.206
  O      299.758     221.214    -267.070
  O      300.977     219.302    -265.885
  H      306.219     220.378    -270.372
  H      299.003     220.642    -266.846
  H      311.110     219.358    -267.053
  H      305.479     222.036    -265.468
  H      306.380     222.317    -269.038
  H      304.486     220.042    -268.131
  H      311.242     219.182    -269.375
  H      303.023     220.814    -269.945
  H      309.892     219.684    -270.342
  H      303.441     223.523    -269.290
  H      302.249     223.129    -267.100
  H      301.394     222.510    -268.493
  P      303.754     221.746    -272.248
  C      304.054     224.076    -273.352
  O      304.441     222.716    -273.330
  O      302.300     222.396    -272.041
  O      303.647     220.306    -272.640
  H      301.625     221.839    -272.476
  H      304.876     224.662    -273.757
  H      303.812     224.444    -272.356
  H      303.176     224.190    -274.001
  H      300.099     222.809    -263.653
  H      299.431     221.252    -264.080
  H      299.294     222.595    -265.189

 3  4  5  6  7  8  9  10  11  12  23  26  30  31 0
 6-311+G(2d,p)
 ****
 33  35  36  37  38 0
 6-311+G(2d,p)
 ****
 1  2  13  14  15  16  17  18  19  20  21  22  24  25 0
 3-21G
 ****
 27  28  29  32  34  39  40  41  42  43  44  45  46  47  48  49 0
 3-21G
 ****


