%nproc=1
%NoSave
%Mem=1900MB
#P OB98/GEN NMR

erre ene a

0 1
  C      374.018    -224.437     185.616
  O      372.930    -223.891     184.898
  H      374.228    -225.438     185.227
  H      373.759    -224.521     186.675
  H      374.908    -223.817     185.497
  P      372.513    -222.382     185.253
  C      370.099    -222.800     186.103
  O      371.439    -222.478     186.445
  C      369.119    -221.874     186.821
  O      369.115    -222.209     188.244
  C      369.456    -220.380     186.703
  O      368.224    -219.651     186.645
  C      370.124    -220.077     188.034
  O      370.084    -218.689     188.363
  C      369.300    -220.971     188.961
  N      369.728    -219.176     193.641
  C      368.932    -218.760     192.588
  N      368.127    -217.702     192.818
  N      368.930    -219.334     191.415
  C      369.762    -220.402     191.337
  C      370.599    -220.912     192.298
  C      370.616    -220.249     193.588
  O      371.310    -220.561     194.549
  N      371.305    -221.986     191.822
  C      370.892    -222.129     190.573
  N      369.955    -221.189     190.234
  O      371.634    -221.955     183.986
  O      373.647    -221.442     185.488
  H      370.498    -218.576     189.243
  H      372.192    -221.504     183.323
  H      369.702    -218.694     194.521
  H      371.236    -222.882     189.882
  H      368.312    -220.549     189.179
  H      371.173    -220.394     188.013
  H      368.043    -217.242     193.711
  H      370.081    -220.125     185.840
  H      367.505    -217.411     192.074
  H      368.111    -222.079     186.449
  H      369.897    -223.837     186.397
  H      369.972    -222.708     185.018
  P      367.514    -219.485     185.219
  C      368.610    -217.147     184.904
  O      368.367    -218.432     184.358
  O      366.191    -218.654     185.576
  O      367.193    -220.772     184.538
  H      365.489    -218.856     184.929
  H      369.187    -216.569     184.213
  H      369.149    -217.246     185.823
  H      367.678    -216.656     185.088

 6  7  8  9  10  11  12  13  14  15  26  29  33  34 0
 6-311+G(2d,p)
 ****
 36  38  39  40  41 0
 6-311+G(2d,p)
 ****
 1  2  3  4  5  16  17  18  19  20  21  22  23  24  25 0
 3-21G
 ****
 27  28  30  31  32  35  37  42  43  44  45  46  47 0
 3-21G
 ****
 48  49 0
 3-21G
 ****


