%nproc=1
%NoSave
%Mem=1900MB
#P OB98/GEN NMR

erre ene a

0 1
  C       71.664     382.153    -119.098
  O       72.060     381.226    -118.101
  P       73.610     381.129    -117.717
  C       74.233     379.555    -119.689
  O       74.426     380.810    -119.062
  C       75.541     379.059    -120.310
  O       75.912     379.939    -121.416
  C       76.725     379.031    -119.334
  O       77.560     377.922    -119.701
  C       77.442     380.335    -119.650
  O       78.793     380.349    -119.212
  C       77.262     380.376    -121.172
  N       77.508     381.703    -121.737
  C       78.823     382.015    -122.073
  O       79.774     381.251    -121.928
  N       79.031     383.287    -122.544
  C       78.094     384.281    -122.618
  O       78.369     385.430    -122.939
  C       76.727     383.891    -122.250
  C       76.497     382.641    -121.833
  O       73.700     379.765    -116.883
  O       74.131     382.293    -116.938
  H       79.177     379.481    -119.426
  H       73.719     379.953    -115.926
  H       79.973     383.531    -122.807
  H       75.954     384.647    -122.317
  H       75.503     382.330    -121.530
  H       77.925     379.646    -121.653
  H       76.920     381.164    -119.163
  H       76.428     378.956    -118.285
  H       75.371     378.062    -120.733
  H       73.479     379.657    -120.471
  H       73.857     378.831    -118.957
  P       78.274     377.097    -118.518
  C       80.655     378.105    -118.911
  O       79.540     377.959    -118.054
  O       78.911     375.884    -119.344
  O       77.336     376.660    -117.439
  H       79.326     376.174    -120.176
  H       80.353     378.138    -119.961
  H       81.339     377.263    -118.762
  H       81.177     379.031    -118.662
  H       70.605     382.096    -119.238
  H       72.158     381.920    -120.018
  H       71.930     383.143    -118.791

 3  4  5  6  7  8  9  10  11  12  13  23  28  29  30  31  32 0
 6-311+G(2d,p)
 ****
 33  34 0
 6-311+G(2d,p)
 ****
 1  2  14  15  16  17  18  19  20  21  22  24  25  26 0
 3-21G
 ****
 27  35  36  37  38  39  40  41  42  43  44  45 0
 3-21G
 ****


