%nproc=1
%NoSave
%Mem=1900MB
#P OB98/GEN NMR

erre ene a

0 1
  C      201.309     138.879     357.872
  O      201.568     140.027     358.692
  P      201.444     139.979     360.290
  C      200.846     142.485     360.217
  O      201.607     141.469     360.865
  C      201.340     143.887     360.590
  O      201.304     144.079     362.018
  C      202.771     144.190     360.159
  O      202.823     144.503     358.782
  C      203.127     145.340     361.096
  O      202.599     146.579     360.593
  C      202.402     144.933     362.387
  N      205.407     145.572     366.476
  C      204.646     146.437     365.771
  N      203.876     146.191     364.689
  C      203.921     144.888     364.363
  C      204.656     143.889     364.985
  C      205.430     144.273     366.093
  N      206.218     143.395     366.800
  N      204.471     142.680     364.350
  C      203.624     142.937     363.376
  N      203.265     144.258     363.338
  O      202.331     138.972     360.944
  O      199.903     139.641     360.570
  H      202.938     147.292     361.163
  H      199.818     139.174     361.421
  H      204.656     147.466     366.122
  H      203.244     142.208     362.673
  H      201.968     145.801     362.897
  H      204.206     145.468     361.217
  H      203.417     143.331     360.379
  H      200.648     144.615     360.145
  H      199.796     142.374     360.514
  H      206.769     143.755     367.562
  H      206.277     142.434     366.492
  H      200.921     142.339     359.133
  P      203.529     143.497     357.753
  C      204.448     145.181     356.049
  O      203.474     144.185     356.306
  O      203.048     142.083     357.802
  O      205.081     143.595     358.131
  H      205.517     142.748     357.928
  H      204.133     146.122     356.510
  H      204.526     145.322     354.968
  H      205.424     144.886     356.445
  H      201.451     139.136     356.843
  H      200.301     138.553     358.022
  H      201.982     138.091     358.139

 3  4  5  6  7  8  9  10  11  12  22  25  29  30  31  32 0
 6-311+G(2d,p)
 ****
 33  36  37 0
 6-311+G(2d,p)
 ****
 1  2  13  14  15  16  17  18  19  20  21  23  24  26 0
 3-21G
 ****
 27  28  34  35  38  39  40  41  42  43  44  45  46  47  48 0
 3-21G
 ****


