%nproc=1
%NoSave
%Mem=1900MB
#P OB98/GEN NMR

erre ene a

0 1
  C      917.273    -892.480    -412.399
  O      917.869    -893.740    -412.045
  P      918.932    -893.760    -410.848
  C      918.068    -895.630    -409.235
  O      918.175    -894.240    -409.515
  C      916.638    -895.990    -408.810
  O      915.683    -895.680    -409.840
  C      916.453    -897.460    -408.489
  O      916.868    -897.750    -407.179
  C      914.922    -897.570    -408.603
  O      914.314    -897.090    -407.400
  C      914.613    -896.650    -409.777
  N      911.447    -899.120    -412.975
  C      911.251    -898.570    -411.751
  N      912.147    -897.950    -410.955
  C      913.343    -897.890    -411.551
  C      913.713    -898.400    -412.792
  C      912.700    -899.040    -413.530
  N      912.898    -899.590    -414.773
  N      915.040    -898.170    -413.063
  C      915.493    -897.520    -412.001
  N      914.508    -897.330    -411.052
  O      919.219    -892.210    -410.582
  O      920.191    -894.510    -411.168
  H      914.645    -896.190    -407.247
  H      920.143    -892.080    -410.318
  H      910.248    -898.650    -411.364
  H      916.488    -897.170    -411.869
  H      913.671    -896.110    -409.629
  H      914.607    -898.630    -408.731
  H      916.933    -898.110    -409.254
  H      916.389    -895.380    -407.929
  H      918.772    -895.910    -408.441
  H      912.131    -900.000    -415.253
  H      913.811    -899.510    -415.177
  H      918.376    -896.180    -410.136
  P      918.350    -898.380    -407.010
  C      919.382    -896.450    -405.628
  O      919.333    -897.120    -406.859
  O      918.677    -898.950    -408.469
  O      918.465    -899.440    -405.957
  H      919.267    -899.720    -408.425
  H      920.295    -895.830    -405.594
  H      919.424    -897.150    -404.795
  H      918.522    -895.800    -405.498
  H      916.589    -892.624    -413.209
  H      918.039    -891.794    -412.696
  H      916.748    -892.084    -411.555

 3  4  5  6  7  8  9  10  11  12  22  25  29  30  31  32 0
 6-311+G(2d,p)
 ****
 33  36  37 0
 6-311+G(2d,p)
 ****
 1  2  13  14  15  16  17  18  19  20  21  23  24  26 0
 3-21G
 ****
 27  28  34  35  38  39  40  41  42  43  44  45  46  47  48 0
 3-21G
 ****


