%nproc=1
%NoSave
%Mem=1900MB
#P OB98/GEN NMR

erre ene a

0 1
  C      432.979    -184.843     235.498
  O      434.028    -185.280     236.375
  P      435.519    -184.781     236.045
  C      437.219    -185.042     234.088
  O      435.890    -185.242     234.553
  C      437.647    -186.205     233.186
  O      437.703    -187.439     233.919
  C      436.674    -186.462     232.045
  O      436.854    -185.516     231.007
  C      437.024    -187.892     231.644
  O      438.050    -187.925     230.639
  C      437.539    -188.508     232.972
  N      436.661    -189.546     233.488
  C      437.138    -190.854     233.387
  O      438.236    -191.083     232.870
  N      436.350    -191.877     233.859
  C      435.183    -191.612     234.360
  N      434.450    -192.677     234.802
  C      434.630    -190.245     234.459
  C      435.415    -189.271     234.006
  O      436.426    -185.725     236.960
  O      435.751    -183.332     236.341
  H      438.703    -187.237     230.899
  H      437.225    -185.244     237.254
  H      433.647    -190.080     234.877
  H      435.091    -188.233     234.039
  H      438.533    -188.955     232.825
  H      436.159    -188.420     231.233
  H      435.638    -186.427     232.417
  H      438.643    -185.984     232.782
  H      434.856    -193.596     234.719
  H      437.907    -184.953     234.926
  H      433.524    -192.582     235.209
  H      437.266    -184.081     233.545
  P      435.740    -184.380     230.827
  C      433.605    -184.207     229.401
  O      434.585    -185.069     229.955
  O      436.421    -183.406     229.752
  O      435.300    -183.648     232.049
  H      435.877    -182.607     229.619
  H      433.015    -184.759     228.673
  H      434.086    -183.363     228.895
  H      432.945    -183.838     230.193
  H      432.045    -185.245     235.831
  H      433.180    -185.184     234.504
  H      432.930    -183.774     235.505

 3  4  5  6  7  8  9  10  11  12  13  21  23  27  28  29  30  32 0
 6-311+G(2d,p)
 ****
 34  35 0
 6-311+G(2d,p)
 ****
 1  2  14  15  16  17  18  19  20  22  24  25  26 0
 3-21G
 ****
 31  33  36  37  38  39  40  41  42  43  44  45  46 0
 3-21G
 ****


