%nproc=1
%NoSave
%Mem=1900MB
#P OB98/GEN NMR

erre ene a

0 1
  C      115.481     124.539      62.134
  O      115.916     125.267      61.004
  H      115.936     124.973      63.027
  H      115.797     123.497      62.048
  H      114.394     124.593      62.228
  P      115.290     124.849      59.586
  C      112.760     125.095      60.101
  O      113.850     124.207      59.899
  C      111.930     125.229      58.827
  O      111.397     123.918      58.471
  C      110.737     126.191      58.948
  O      110.566     126.845      57.685
  C      109.562     125.249      59.156
  O      108.314     125.844      58.812
  C      109.983     124.089      58.254
  N      105.398     122.022      58.189
  C      105.826     123.268      57.774
  N      104.889     124.094      57.260
  N      107.066     123.670      57.853
  C      107.903     122.730      58.356
  C      107.604     121.466      58.807
  C      106.221     121.043      58.737
  O      105.778     119.961      59.108
  N      108.729     120.830      59.271
  C      109.701     121.706      59.098
  N      109.249     122.873      58.547
  O      116.183     123.588      59.169
  O      115.302     125.913      58.542
  H      108.131     126.556      59.460
  H      116.927     123.873      58.606
  H      104.428     121.767      58.118
  H      110.740     121.548      59.356
  H      109.823     124.309      57.191
  H      109.513     124.931      60.205
  H      103.924     123.835      57.124
  H      110.836     126.936      59.742
  H      105.191     124.995      56.910
  H      112.593     125.532      58.008
  H      113.152     126.079      60.380
  H      112.134     124.718      60.917
  P      110.158     128.394      57.689
  C      112.372     129.711      58.042
  O      111.193     129.178      58.627
  O      108.813     128.405      58.561
  O      109.939     128.975      56.332
  H      108.249     129.152      58.291
  H      112.954     130.201      58.795
  H      112.106     130.416      57.282
  H      112.945     128.918      57.608

 6  7  8  9  10  11  12  13  14  15  26  29  33  34 0
 6-311+G(2d,p)
 ****
 36  38  39  40  41 0
 6-311+G(2d,p)
 ****
 1  2  3  4  5  16  17  18  19  20  21  22  23  24  25 0
 3-21G
 ****
 27  28  30  31  32  35  37  42  43  44  45  46  47 0
 3-21G
 ****
 48  49 0
 3-21G
 ****


