%nproc=1
%NoSave
%Mem=1900MB
#P OB98/GEN NMR

erre ene a

0 1
  C       -4.342     221.618     -34.894
  O       -3.636     221.063     -33.783
  P       -4.105     221.438     -32.296
  C       -2.669     223.574     -32.424
  O       -3.932     223.023     -32.086
  C       -2.453     224.919     -31.717
  O       -3.521     225.853     -32.054
  C       -2.441     224.784     -30.187
  O       -1.548     225.744     -29.604
  C       -3.857     225.173     -29.803
  O       -3.940     225.573     -28.438
  C       -4.131     226.279     -30.818
  N       -8.668     226.859     -28.514
  C       -7.421     226.701     -28.016
  N       -6.258     226.576     -28.690
  C       -6.469     226.643     -30.016
  C       -7.679     226.810     -30.667
  C       -8.823     226.914     -29.856
  N      -10.096     227.044     -30.363
  N       -7.505     226.825     -32.037
  C       -6.214     226.620     -32.208
  N       -5.541     226.538     -31.019
  O       -3.537     220.595     -31.205
  O       -5.698     221.276     -32.377
  H       -3.510     224.880     -27.903
  H       -6.016     220.840     -31.562
  H       -7.348     226.664     -26.932
  H       -5.722     226.511     -33.163
  H       -3.659     227.226     -30.526
  H       -4.530     224.320     -29.952
  H       -2.173     223.788     -29.820
  H       -1.516     225.363     -32.071
  H       -2.602     223.709     -33.506
  H      -10.864     226.993     -29.712
  H      -10.239     226.937     -31.359
  H       -1.882     222.857     -32.161
  P       -0.050     225.230     -29.310
  C       -0.569     225.142     -26.750
  O       -0.119     224.468     -27.904
  O        0.983     226.301     -29.431
  O        0.110     224.058     -30.388
  H       -0.616     223.411     -30.399
  H       -0.663     224.421     -25.934
  H       -1.545     225.601     -26.921
  H        0.154     225.910     -26.457
  H       -3.904     221.269     -35.806
  H       -4.284     222.686     -34.856
  H       -5.367     221.315     -34.852

 3  4  5  6  7  8  9  10  11  12  22  25  29  30  31  32 0
 6-311+G(2d,p)
 ****
 33  36  37 0
 6-311+G(2d,p)
 ****
 1  2  13  14  15  16  17  18  19  20  21  23  24  26 0
 3-21G
 ****
 27  28  34  35  38  39  40  41  42  43  44  45  46  47  48 0
 3-21G
 ****


