%nproc=1
%NoSave
%Mem=1900MB
#P OB98/GEN NMR

erre ene a

0 1
  C      -11.689     -67.570      52.586
  O      -12.889     -67.687      53.320
  H      -11.193     -68.543      52.572
  H      -11.022     -66.844      53.056
  H      -11.900     -67.270      51.555
  P      -13.785     -66.377      53.548
  C      -14.840     -65.929      51.235
  O      -15.025     -66.481      52.534
  C      -16.004     -66.331      50.319
  O      -15.695     -67.631      49.758
  C      -17.336     -66.433      51.074
  O      -18.378     -65.670      50.469
  C      -17.540     -67.938      51.215
  O      -18.890     -68.334      51.340
  C      -16.815     -68.504      49.991
  N      -16.365     -69.885      50.158
  C      -17.185     -70.890      49.653
  O      -18.249     -70.707      49.067
  N      -16.731     -72.172      49.837
  C      -15.581     -72.535      50.472
  O      -15.226     -73.701      50.603
  C      -14.772     -71.430      51.009
  C      -15.194     -70.177      50.832
  O      -13.051     -65.079      53.504
  O      -14.468     -66.618      54.976
  H      -19.388     -67.895      50.619
  H      -14.034     -66.054      55.644
  H      -17.308     -72.908      49.462
  H      -13.859     -71.684      51.530
  H      -14.621     -69.338      51.213
  H      -17.462     -68.472      49.113
  H      -17.022     -68.272      52.122
  H      -17.252     -65.992      52.075
  H      -16.062     -65.617      49.489
  H      -13.895     -66.313      50.838
  H      -14.783     -64.838      51.304
  P      -18.951     -64.293      51.032
  C      -17.776     -62.247      49.870
  O      -18.842     -63.187      49.882
  O      -18.482     -63.898      52.391
  O      -20.541     -64.552      51.125
  H      -20.861     -64.022      51.883
  H      -17.882     -61.598      49.026
  H      -16.843     -62.767      49.805
  H      -17.800     -61.669      50.770

 6  7  8  9  10  11  12  13  14  15  16  26  31  32  33  34  35 0
 6-311+G(2d,p)
 ****
 36  37 0
 6-311+G(2d,p)
 ****
 1  2  3  4  5  17  18  19  20  21  22  23  24  25 0
 3-21G
 ****
 27  28  29  30  38  39  40  41  42  43  44  45 0
 3-21G
 ****


