%nproc=1
%NoSave
%Mem=1900MB
#P OB98/GEN NMR

erre ene a

0 1
  C       99.218      95.635     108.642
  O       98.246      94.880     109.336
  H       98.907      95.791     107.606
  H       99.320      96.610     109.128
  H      100.185      95.125     108.669
  P       97.949      93.402     108.787
  C       95.359      93.608     108.809
  O       96.511      93.000     109.376
  C       94.139      93.293     109.667
  O       93.850      91.877     109.622
  C       94.304      93.634     111.144
  O       94.086      95.009     111.405
  C       93.208      92.777     111.751
  O       91.929      93.402     111.540
  C       93.317      91.492     110.919
  N       93.471      87.235     113.752
  C       92.445      88.015     113.351
  N       92.487      89.134     112.602
  C       93.751      89.430     112.261
  C       94.899      88.735     112.602
  C       94.725      87.579     113.381
  N       95.771      86.789     113.805
  N       96.020      89.365     112.097
  C       95.550      90.402     111.435
  N       94.186      90.491     111.513
  O       98.955      92.480     109.624
  O       98.094      93.217     107.314
  H       91.784      93.422     110.575
  H       99.096      91.633     109.161
  H       91.458      87.697     113.678
  H       96.153      91.114     110.886
  H       92.344      91.019     110.747
  H       93.322      92.635     112.828
  H       95.276      93.300     111.528
  H       93.277      93.821     109.240
  H       95.204      93.215     107.801
  H       95.558      86.098     114.507
  H       96.714      87.122     113.660
  H       95.515      94.690     108.751
  P       95.375      95.915     111.711
  C       94.785      96.513     114.173
  O       94.914      96.967     112.828
  O       95.515      96.805     110.392
  O       96.619      95.147     112.016
  H       96.441      97.086     110.258
  H       94.472      97.325     114.795
  H       95.728      96.143     114.517
  H       94.058      95.730     114.217

 6  7  8  9  10  11  12  13  14  15  25  28  32  33  34  35 0
 6-311+G(2d,p)
 ****
 36  39  40 0
 6-311+G(2d,p)
 ****
 1  2  3  4  5  16  17  18  19  20  21  22  23  24 0
 3-21G
 ****
 26  27  29  30  31  37  38  41  42  43  44  45  46  47 0
 3-21G
 ****
 48 0
 3-21G
 ****


