%nproc=1
%NoSave
%Mem=1900MB
#P OB98/GEN NMR

erre ene a

0 1
  C     -122.899    -209.288      62.818
  O     -122.923    -210.214      61.726
  P     -124.323    -210.423      60.970
  C     -123.147    -210.598      58.633
  O     -123.969    -211.211      59.616
  C     -122.136    -211.608      58.093
  O     -121.096    -211.859      59.069
  C     -122.730    -212.971      57.772
  O     -123.494    -212.937      56.577
  C     -121.471    -213.826      57.707
  O     -120.828    -213.672      56.434
  C     -120.602    -213.198      58.820
  N     -120.572    -213.993      60.040
  C     -119.587    -214.974      60.103
  O     -118.794    -215.190      59.184
  N     -119.555    -215.715      61.253
  C     -120.410    -215.595      62.307
  O     -120.325    -216.282      63.316
  C     -121.462    -214.574      62.161
  C     -121.496    -213.832      61.056
  O     -124.641    -208.932      60.491
  O     -125.365    -211.049      61.832
  H     -123.845    -208.431      60.247
  H     -120.061    -214.279      56.437
  H     -118.840    -216.424      61.322
  H     -122.174    -214.470      62.971
  H     -122.265    -213.076      60.928
  H     -119.570    -213.081      58.467
  H     -121.682    -214.892      57.843
  H     -123.365    -213.306      58.605
  H     -121.672    -211.178      57.196
  H     -122.610    -209.750      59.070
  H     -123.784    -210.210      57.834
  P     -124.814    -213.852      56.529
  C     -126.394    -211.830      57.021
  O     -126.029    -212.877      56.154
  O     -125.030    -214.164      58.085
  O     -124.671    -215.067      55.674
  H     -124.913    -213.380      58.649
  H     -126.973    -211.091      56.458
  H     -125.515    -211.334      57.446
  H     -127.016    -212.221      57.831
  H     -121.912    -209.246      63.228
  H     -123.586    -209.609      63.573
  H     -123.182    -208.317      62.469

 3  4  5  6  7  8  9  10  11  12  13  24  28  29  30  31  32 0
 6-311+G(2d,p)
 ****
 33  34 0
 6-311+G(2d,p)
 ****
 1  2  14  15  16  17  18  19  20  21  22  23  25  26  27 0
 3-21G
 ****
 35  36  37  38  39  40  41  42  43  44  45 0
 3-21G
 ****


