%nproc=1
%NoSave
%Mem=1900MB
#P OB98/GEN NMR

erre ene a

0 1
  C        0.192     147.128     221.118
  O        0.706     146.326     220.051
  P       -0.127     146.302     218.679
  C        2.131     146.675     217.432
  O        0.884     145.988     217.476
  C        2.937     146.230     216.211
  O        3.387     144.868     216.350
  C        2.135     146.252     214.923
  O        2.017     147.576     214.434
  C        2.949     145.332     214.019
  O        3.950     146.060     213.286
  C        3.606     144.357     215.022
  N        3.108     142.994     214.891
  C        4.018     142.059     214.386
  O        5.155     142.407     214.061
  N        3.603     140.758     214.238
  C        2.386     140.430     214.542
  N        2.030     139.125     214.370
  C        1.387     141.395     215.052
  C        1.809     142.649     215.197
  O       -0.502     147.843     218.455
  O       -1.344     145.437     218.726
  H        4.368     146.663     213.933
  H       -1.367     147.917     218.010
  H        0.381     141.075     215.286
  H        1.148     143.424     215.567
  H        4.695     144.334     214.875
  H        2.314     144.832     213.283
  H        1.139     145.818     215.091
  H        3.819     146.881     216.116
  H        2.738     138.495     214.018
  H        2.702     146.483     218.343
  H        1.110     138.765     214.566
  H        1.938     147.754     217.405
  P        0.543     148.171     214.228
  C        1.758     150.436     214.195
  O        0.766     149.629     213.595
  O        0.117     148.530     215.735
  O       -0.462     147.297     213.559
  H       -0.814     148.814     215.761
  H        1.950     151.297     213.553
  H        2.689     149.873     214.324
  H        1.404     150.794     215.167
  H        0.841     147.052     221.966
  H       -0.785     146.783     221.385
  H        0.136     148.149     220.802

 3  4  5  6  7  8  9  10  11  12  13  21  23  27  28  29  30  32 0
 6-311+G(2d,p)
 ****
 34  35 0
 6-311+G(2d,p)
 ****
 1  2  14  15  16  17  18  19  20  22  24  25  26 0
 3-21G
 ****
 31  33  36  37  38  39  40  41  42  43  44  45  46 0
 3-21G
 ****


