%nproc=1
%NoSave
%Mem=1900MB
#P OB98/GEN NMR

erre ene a

0 1
  C      603.943     298.645    -279.049
  O      603.412     299.669    -279.867
  H      604.823     299.032    -278.531
  H      604.237     297.787    -279.654
  H      603.205     298.340    -278.304
  P      602.132     299.282    -280.758
  C      603.747     299.469    -282.759
  O      602.483     299.845    -282.223
  C      604.423     300.667    -283.431
  O      603.563     301.144    -284.499
  C      604.668     301.845    -282.475
  O      605.897     302.482    -282.832
  C      603.508     302.781    -282.783
  O      603.795     304.130    -282.423
  C      603.324     302.542    -284.281
  N      600.451     306.450    -285.855
  C      601.775     306.325    -285.654
  N      602.463     305.237    -285.253
  C      601.642     304.178    -285.113
  C      600.269     304.149    -285.279
  C      599.662     305.357    -285.662
  N      598.307     305.499    -285.841
  N      599.778     302.887    -285.000
  C      600.835     302.167    -284.675
  N      601.988     302.916    -284.716
  O      600.812     299.712    -280.211
  O      602.323     297.704    -280.938
  H      602.972     304.655    -282.509
  H      603.242     297.478    -281.185
  H      602.362     307.231    -285.825
  H      600.826     301.119    -284.400
  H      604.036     303.122    -284.898
  H      602.623     302.467    -282.229
  H      604.690     301.550    -281.431
  H      605.358     300.333    -283.899
  H      603.620     298.664    -283.496
  H      597.948     306.406    -286.112
  H      597.699     304.703    -285.710
  H      604.365     299.095    -281.937
  P      607.172     302.292    -281.891
  C      608.019     304.725    -281.856
  O      608.277     303.385    -282.279
  O      607.694     300.891    -281.779
  O      606.652     302.814    -280.466
  H      606.968     302.220    -279.760
  H      608.821     305.359    -282.171
  H      607.940     304.753    -280.789
  H      607.103     305.066    -282.291

 6  7  8  9  10  11  12  13  14  15  25  28  32  33  34  35 0
 6-311+G(2d,p)
 ****
 36  39  40 0
 6-311+G(2d,p)
 ****
 1  2  3  4  5  16  17  18  19  20  21  22  23  24 0
 3-21G
 ****
 26  27  29  30  31  37  38  41  42  43  44  45  46  47 0
 3-21G
 ****
 48 0
 3-21G
 ****


