%nproc=1
%NoSave
%Mem=1900MB
#P OB98/GEN NMR

erre ene a

0 1
  C       -8.067    -727.428    -629.074
  O       -6.709    -727.728    -628.717
  P       -6.439    -729.012    -627.793
  C       -7.195    -727.695    -625.667
  O       -6.194    -728.503    -626.292
  C       -6.957    -727.622    -624.156
  O       -7.222    -728.875    -623.504
  C       -5.528    -727.263    -623.769
  O       -5.314    -725.861    -623.838
  C       -5.481    -727.728    -622.330
  O       -6.106    -726.754    -621.466
  C       -6.325    -729.015    -622.384
  N       -4.415    -733.123    -619.993
  C       -5.137    -732.075    -619.545
  N       -5.593    -731.004    -620.233
  C       -5.246    -731.103    -621.529
  C       -4.513    -732.119    -622.138
  C       -4.088    -733.163    -621.306
  N       -3.359    -734.242    -621.781
  N       -4.360    -731.869    -623.480
  C       -5.001    -730.734    -623.693
  N       -5.542    -730.229    -622.537
  O       -4.984    -729.490    -628.253
  O       -7.458    -730.086    -627.960
  H       -5.562    -725.950    -621.510
  H       -4.933    -730.472    -628.203
  H       -5.365    -732.083    -618.482
  H       -5.085    -730.228    -624.647
  H       -6.942    -729.131    -621.486
  H       -4.458    -727.871    -621.965
  H       -4.803    -727.818    -624.377
  H       -7.650    -726.880    -623.741
  H       -8.181    -728.094    -625.872
  H       -3.103    -734.971    -621.119
  H       -3.138    -734.284    -622.764
  H       -7.165    -726.691    -626.120
  P       -4.715    -725.269    -625.213
  C       -2.376    -725.865    -624.207
  O       -3.189    -724.898    -624.896
  O       -5.436    -723.849    -625.340
  O       -4.949    -726.137    -626.404
  H       -5.540    -723.607    -626.284
  H       -1.329    -725.593    -624.362
  H       -2.539    -726.860    -624.622
  H       -2.610    -725.848    -623.150
  H       -8.089    -726.551    -629.687
  H       -8.640    -727.257    -628.186
  H       -8.484    -728.252    -629.614

 3  4  5  6  7  8  9  10  11  12  22  25  29  30  31  32 0
 6-311+G(2d,p)
 ****
 33  36  37 0
 6-311+G(2d,p)
 ****
 1  2  13  14  15  16  17  18  19  20  21  23  24  26 0
 3-21G
 ****
 27  28  34  35  38  39  40  41  42  43  44  45  46  47  48 0
 3-21G
 ****


