%nproc=1
%NoSave
%Mem=1900MB
#P OB98/GEN NMR

erre ene a

0 1
  C     -978.802    1385.557    -230.546
  O     -979.148    1384.708    -231.635
  P     -980.722    1384.421    -231.822
  C     -981.248    1385.818    -233.949
  O     -981.385    1385.704    -232.531
  C     -982.010    1387.022    -234.482
  O     -983.405    1387.004    -234.039
  C     -981.441    1388.373    -234.064
  O     -981.623    1389.293    -235.142
  C     -982.307    1388.768    -232.900
  O     -982.234    1390.161    -232.637
  C     -983.661    1388.291    -233.410
  N     -987.364    1390.751    -230.996
  C     -986.440    1391.200    -231.912
  N     -986.559    1392.513    -232.280
  N     -985.507    1390.460    -232.423
  C     -985.527    1389.184    -232.003
  C     -986.408    1388.593    -231.100
  C     -987.429    1389.448    -230.523
  O     -988.256    1389.088    -229.695
  N     -986.132    1387.254    -230.938
  C     -985.061    1387.068    -231.680
  N     -984.683    1388.181    -232.402
  O     -981.283    1384.488    -230.322
  O     -981.023    1383.094    -232.468
  H     -982.921    1390.394    -231.982
  H     -981.410    1383.584    -229.976
  H     -988.064    1391.369    -230.607
  H     -984.534    1386.130    -231.770
  H     -984.076    1388.965    -234.189
  H     -982.042    1388.243    -231.987
  H     -987.286    1393.121    -231.956
  H     -980.363    1388.340    -233.769
  H     -985.926    1392.859    -232.991
  H     -982.017    1386.965    -235.576
  H     -981.623    1384.897    -234.415
  H     -980.178    1385.853    -234.200
  P     -980.341    1389.872    -235.876
  C     -980.686    1387.984    -237.623
  O     -979.769    1388.703    -236.831
  O     -979.260    1389.948    -234.686
  O     -980.537    1391.194    -236.522
  H     -978.715    1390.764    -234.795
  H     -980.178    1387.595    -238.491
  H     -981.536    1388.596    -237.938
  H     -981.050    1387.128    -237.031
  H     -977.740    1385.680    -230.514
  H     -979.138    1385.117    -229.630
  H     -979.268    1386.511    -230.676

 3  4  5  6  7  8  9  10  11  12  23  26  30  31 0
 6-311+G(2d,p)
 ****
 33  35  36  37  38 0
 6-311+G(2d,p)
 ****
 1  2  13  14  15  16  17  18  19  20  21  22  24  25 0
 3-21G
 ****
 27  28  29  32  34  39  40  41  42  43  44  45  46  47  48  49 0
 3-21G
 ****


