%nproc=1
%NoSave
%Mem=1900MB
#P OB98/GEN NMR

erre ene a

0 1
  C      624.421     341.786     200.672
  O      624.549     343.052     200.056
  H      624.957     341.800     201.623
  H      624.857     341.013     200.031
  H      623.367     341.561     200.860
  P      623.643     343.308     198.759
  C      623.362     342.149     196.425
  O      623.935     342.112     197.721
  C      623.427     340.762     195.785
  O      624.749     340.495     195.276
  C      623.174     339.619     196.749
  O      621.815     339.509     197.128
  C      623.660     338.435     195.921
  O      622.648     337.957     195.028
  C      624.841     339.058     195.132
  N      626.122     338.543     195.580
  C      626.462     337.263     195.084
  O      625.693     336.681     194.322
  N      627.625     336.681     195.507
  C      628.376     337.310     196.374
  N      629.501     336.655     196.779
  C      628.058     338.646     196.908
  C      626.930     339.197     196.474
  O      624.367     344.566     198.081
  O      622.190     343.516     199.043
  H      622.372     338.730     194.491
  H      625.324     344.463     197.987
  H      628.725     339.116     197.614
  H      626.620     340.176     196.824
  H      624.736     338.841     194.061
  H      623.951     337.593     196.553
  H      623.819     339.713     197.628
  H      622.714     340.739     194.939
  H      629.652     335.721     196.418
  H      623.872     342.883     195.795
  H      630.119     337.006     197.499
  H      622.320     342.474     196.528
  P      621.379     338.760     198.464
  C      621.406     336.319     199.316
  O      621.881     337.233     198.328
  O      619.944     338.889     198.847
  O      622.405     339.336     199.558
  H      623.338     339.188     199.362
  H      621.804     335.345     199.122
  H      620.337     336.281     199.282
  H      621.720     336.646     200.285

 6  7  8  9  10  11  12  13  14  15  16  26  30  31  32  33  35 0
 6-311+G(2d,p)
 ****
 37  38 0
 6-311+G(2d,p)
 ****
 1  2  3  4  5  17  18  19  20  21  22  23  24  25 0
 3-21G
 ****
 27  28  29  34  36  39  40  41  42  43  44  45  46 0
 3-21G
 ****


