%nproc=1
%NoSave
%Mem=1900MB
#P OB98/GEN NMR

erre ene a

0 1
  C       -2.420    -156.718     -82.745
  O       -2.065    -155.819     -83.776
  H       -2.326    -156.204     -81.785
  H       -1.746    -157.578     -82.747
  H       -3.453    -157.056     -82.861
  P       -2.308    -156.255     -85.299
  C        0.232    -156.520     -85.658
  O       -0.967    -155.898     -86.102
  C        1.440    -155.732     -86.156
  O        2.659    -156.443     -85.849
  C        1.459    -155.512     -87.665
  O        0.544    -154.502     -88.040
  C        2.925    -155.163     -87.881
  O        3.178    -153.791     -87.544
  C        3.619    -156.116     -86.879
  N        4.147    -157.326     -87.505
  C        5.324    -157.184     -88.234
  O        5.888    -156.104     -88.392
  N        5.822    -158.330     -88.795
  C        5.226    -159.559     -88.767
  O        5.688    -160.545     -89.333
  C        3.968    -159.643     -88.013
  C        3.495    -158.542     -87.426
  O       -3.566    -155.754     -85.926
  O       -2.276    -157.855     -85.241
  H        4.133    -153.641     -87.684
  H       -3.187    -158.203     -85.250
  H        6.667    -158.245     -89.337
  H        3.465    -160.599     -87.975
  H        2.565    -158.583     -86.869
  H        4.449    -155.601     -86.380
  H        3.240    -155.297     -88.916
  H        1.242    -156.451     -88.187
  H        1.467    -154.773     -85.623
  H        0.269    -157.539     -86.058
  H        0.223    -156.566     -84.564
  P       -0.269    -154.601     -89.414
  C        1.820    -153.879     -90.707
  O        0.442    -153.622     -90.469
  O       -1.746    -154.422     -89.295
  O        0.092    -156.057     -89.972
  H       -0.673    -156.655     -89.857
  H        2.196    -153.176     -91.420
  H        1.937    -154.872     -91.089
  H        2.364    -153.783     -89.791

 6  7  8  9  10  11  12  13  14  15  16  26  31  32  33  34  35 0
 6-311+G(2d,p)
 ****
 36  37 0
 6-311+G(2d,p)
 ****
 1  2  3  4  5  17  18  19  20  21  22  23  24  25 0
 3-21G
 ****
 27  28  29  30  38  39  40  41  42  43  44  45 0
 3-21G
 ****


