%nproc=1
%NoSave
%Mem=1900MB
#P OB98/GEN NMR

erre ene a

0 1
  C      410.472     321.755     606.714
  O      409.231     322.028     607.323
  H      411.264     321.880     607.456
  H      410.650     322.461     605.894
  H      410.506     320.731     606.331
  P      407.884     321.741     606.504
  C      407.029     324.183     606.535
  O      406.818     322.845     606.961
  C      406.052     325.145     607.237
  O      406.489     325.310     608.629
  C      405.992     326.551     606.612
  O      404.669     327.052     606.845
  C      407.019     327.282     607.461
  O      406.972     328.679     607.278
  C      406.647     326.723     608.843
  N      407.616     326.981     609.892
  C      407.719     328.280     610.380
  O      407.051     329.233     609.983
  N      408.644     328.478     611.376
  C      409.456     327.519     611.919
  O      410.251     327.749     612.832
  C      409.306     326.167     611.364
  C      408.403     325.956     610.398
  O      407.392     320.329     606.528
  O      408.248     322.208     605.012
  H      408.439     321.425     604.461
  H      407.082     328.877     606.328
  H      408.739     329.413     611.739
  H      409.935     325.385     611.772
  H      408.265     324.963     609.976
  H      405.665     327.113     609.143
  H      408.028     326.971     607.174
  H      406.208     326.550     605.537
  H      405.064     324.676     607.267
  H      406.874     324.225     605.450
  H      408.065     324.468     606.764
  P      403.580     327.246     605.673
  C      403.375     329.738     606.326
  O      402.684     328.538     606.036
  O      402.772     326.020     605.384
  O      404.416     327.706     604.381
  H      403.933     327.445     603.577
  H      402.669     330.511     606.548
  H      403.963     330.025     605.479
  H      404.015     329.586     607.170

 6  7  8  9  10  11  12  13  14  15  16  27  31  32  33  34  35 0
 6-311+G(2d,p)
 ****
 36  37 0
 6-311+G(2d,p)
 ****
 1  2  3  4  5  17  18  19  20  21  22  23  24  25 0
 3-21G
 ****
 26  28  29  30  38  39  40  41  42  43  44  45 0
 3-21G
 ****


