%nproc=1
%NoSave
%Mem=1900MB
#P OB98/GEN NMR

erre ene a

0 1
  C     -104.453    -114.399     329.447
  O     -105.021    -115.566     328.877
  P     -106.606    -115.741     328.775
  C     -106.649    -117.293     330.891
  O     -107.159    -116.169     330.208
  C     -107.817    -118.210     331.280
  O     -108.695    -117.532     332.202
  C     -108.637    -118.621     330.060
  O     -108.197    -119.873     329.560
  C     -110.051    -118.652     330.609
  O     -110.297    -119.891     331.300
  C     -110.023    -117.475     331.613
  N     -110.232    -116.111     331.092
  C     -111.391    -115.815     330.380
  O     -112.290    -116.627     330.176
  N     -111.472    -114.541     329.879
  C     -110.550    -113.552     330.059
  O     -110.515    -112.510     329.417
  C     -109.496    -113.843     331.036
  C     -109.372    -115.093     331.481
  O     -106.766    -117.071     327.903
  O     -107.343    -114.587     328.177
  H     -109.598    -119.991     331.970
  H     -106.948    -116.852     326.969
  H     -112.244    -114.363     329.245
  H     -108.824    -113.043     331.319
  H     -108.575    -115.340     332.178
  H     -110.750    -117.628     332.417
  H     -110.786    -118.600     329.807
  H     -108.579    -117.845     329.285
  H     -107.416    -119.096     331.787
  H     -106.101    -116.971     331.785
  H     -105.941    -117.832     330.254
  P     -108.140    -120.117     327.981
  C     -110.317    -121.436     328.293
  O     -109.652    -120.436     327.549
  O     -107.119    -121.102     327.516
  O     -107.864    -118.652     327.393
  H     -106.908    -118.544     327.207
  H     -111.373    -121.430     328.025
  H     -110.218    -121.246     329.366
  H     -109.895    -122.418     328.051
  H     -103.386    -114.473     329.423
  H     -104.781    -114.301     330.461
  H     -104.764    -113.541     328.888

 3  4  5  6  7  8  9  10  11  12  13  23  28  29  30  31  32 0
 6-311+G(2d,p)
 ****
 33  34 0
 6-311+G(2d,p)
 ****
 1  2  14  15  16  17  18  19  20  21  22  24  25  26  27 0
 3-21G
 ****
 35  36  37  38  39  40  41  42  43  44  45 0
 3-21G
 ****


