%nproc=1
%NoSave
%Mem=1900MB
#P OB98/GEN NMR

erre ene a

0 1
  C       77.529    -142.119    -118.526
  O       76.511    -141.960    -119.494
  H       77.810    -141.134    -118.145
  H       78.407    -142.586    -118.979
  H       77.172    -142.731    -117.693
  P       75.868    -143.297    -120.101
  C       76.487    -143.057    -122.619
  O       75.481    -142.959    -121.623
  C       75.911    -142.658    -123.978
  O       74.600    -143.269    -124.122
  C       75.733    -141.145    -124.142
  O       76.020    -140.785    -125.496
  C       74.256    -140.935    -123.857
  O       73.723    -139.752    -124.434
  C       73.661    -142.221    -124.442
  N       72.340    -142.525    -123.899
  C       71.237    -141.996    -124.562
  O       71.291    -141.354    -125.610
  N       70.022    -142.229    -123.968
  C       69.812    -142.898    -122.799
  O       68.701    -143.054    -122.306
  C       71.015    -143.427    -122.141
  C       72.204    -143.219    -122.711
  O       74.444    -143.385    -119.375
  O       76.676    -144.538    -119.931
  H       74.514    -143.899    -118.548
  H       72.763    -139.727    -124.241
  H       69.213    -141.853    -124.438
  H       70.888    -143.956    -121.206
  H       73.112    -143.582    -122.244
  H       73.606    -142.153    -125.536
  H       74.086    -140.889    -122.775
  H       76.364    -140.567    -123.465
  H       76.548    -143.071    -124.770
  H       76.845    -144.090    -122.668
  H       77.323    -142.401    -122.354
  P       77.562    -140.779    -125.947
  C       78.409    -138.307    -125.901
  O       77.810    -139.354    -126.644
  O       77.541    -141.817    -127.160
  O       78.495    -141.120    -124.833
  H       76.733    -141.769    -127.699
  H       78.497    -137.437    -126.518
  H       79.381    -138.612    -125.574
  H       77.801    -138.081    -125.050

 6  7  8  9  10  11  12  13  14  15  16  27  31  32  33  34  35 0
 6-311+G(2d,p)
 ****
 36  37 0
 6-311+G(2d,p)
 ****
 1  2  3  4  5  17  18  19  20  21  22  23  24  25 0
 3-21G
 ****
 26  28  29  30  38  39  40  41  42  43  44  45 0
 3-21G
 ****


