%nproc=1
%NoSave
%Mem=1900MB
#P OB98/GEN NMR

erre ene a

0 1
  C      205.272      57.685    -187.543
  O      206.345      58.315    -186.828
  P      207.363      59.359    -187.517
  C      209.536      57.965    -187.489
  O      208.517      58.547    -188.289
  C      210.882      57.908    -188.226
  O      211.924      57.412    -187.330
  C      210.884      57.017    -189.476
  O      211.691      57.688    -190.458
  C      211.563      55.756    -188.957
  O      212.080      54.916    -189.988
  C      212.633      56.386    -188.054
  N      213.303      55.461    -187.138
  C      214.424      54.777    -187.609
  O      214.809      54.893    -188.768
  N      215.095      53.939    -186.738
  C      214.675      53.800    -185.521
  N      215.391      52.966    -184.704
  C      213.487      54.494    -184.990
  C      212.859      55.298    -185.835
  O      207.897      60.387    -186.563
  O      206.533      60.059    -188.689
  H      206.807      60.994    -188.762
  H      212.709      55.434    -190.512
  H      213.175      54.356    -183.961
  H      211.991      55.873    -185.520
  H      213.389      56.884    -188.679
  H      210.837      55.166    -188.390
  H      209.891      56.846    -189.898
  H      211.168      58.939    -188.487
  H      216.206      52.514    -185.105
  H      209.233      56.942    -187.232
  H      215.160      52.796    -183.739
  H      209.629      58.530    -186.555
  P      211.265      59.138    -190.987
  C      209.229      58.393    -192.445
  O      209.685      59.097    -191.310
  O      211.894      59.156    -192.464
  O      211.766      60.304    -190.191
  H      212.062      60.074    -192.726
  H      208.347      57.808    -192.172
  H      209.993      57.724    -192.863
  H      208.940      59.124    -193.215
  H      204.735      57.037    -186.882
  H      205.671      57.114    -188.355
  H      204.610      58.434    -187.925

 3  4  5  6  7  8  9  10  11  12  13  24  27  28  29  30  32 0
 6-311+G(2d,p)
 ****
 34  35 0
 6-311+G(2d,p)
 ****
 1  2  14  15  16  17  18  19  20  21  22  23  25  26 0
 3-21G
 ****
 31  33  36  37  38  39  40  41  42  43  44  45  46 0
 3-21G
 ****


