%nproc=1
%NoSave
%Mem=1900MB
#P OB98/GEN NMR

erre ene a

0 1
  C      490.897    -644.961    -666.666
  O      492.127    -644.325    -667.035
  P      492.929    -644.866    -668.318
  C      493.496    -642.539    -669.286
  O      494.007    -643.754    -668.756
  C      494.636    -641.537    -669.557
  O      494.977    -640.818    -668.338
  C      495.917    -642.231    -670.052
  O      496.624    -641.375    -670.966
  C      496.750    -642.335    -668.780
  O      498.141    -642.496    -669.075
  C      496.378    -641.016    -668.093
  N      499.153    -638.945    -664.294
  C      499.067    -638.648    -665.613
  N      498.289    -639.236    -666.561
  C      497.538    -640.207    -666.031
  C      497.514    -640.617    -664.701
  C      498.379    -639.950    -663.808
  N      498.484    -640.266    -662.481
  N      496.613    -641.646    -664.513
  C      496.146    -641.894    -665.734
  N      496.644    -641.032    -666.668
  O      492.078    -645.396    -669.427
  O      493.856    -646.015    -667.685
  H      498.214    -643.279    -669.654
  H      493.852    -646.784    -668.303
  H      499.712    -637.854    -665.956
  H      495.448    -642.686    -665.980
  H      496.931    -640.169    -668.528
  H      496.415    -643.193    -668.187
  H      495.750    -643.206    -670.519
  H      494.280    -640.793    -670.288
  H      492.781    -642.096    -668.579
  H      499.210    -639.819    -661.941
  H      498.023    -641.105    -662.128
  H      492.928    -642.756    -670.199
  P      496.640    -641.861    -672.508
  C      495.551    -639.636    -673.365
  O      496.652    -640.512    -673.374
  O      495.559    -642.852    -672.831
  O      498.127    -642.458    -672.656
  H      498.835    -641.862    -672.334
  H      495.803    -638.723    -673.906
  H      495.292    -639.358    -672.337
  H      494.682    -640.103    -673.841
  H      490.495    -644.483    -665.797
  H      491.079    -645.994    -666.453
  H      490.198    -644.881    -667.472

 3  4  5  6  7  8  9  10  11  12  22  25  29  30  31  32 0
 6-311+G(2d,p)
 ****
 33  36  37 0
 6-311+G(2d,p)
 ****
 1  2  13  14  15  16  17  18  19  20  21  23  24  26 0
 3-21G
 ****
 27  28  34  35  38  39  40  41  42  43  44  45  46  47  48 0
 3-21G
 ****


