%nproc=1
%NoSave
%Mem=1900MB
#P OB98/GEN NMR

erre ene a

0 1
  C     -202.280     745.097    -241.056
  O     -202.852     743.998    -241.778
  P     -204.332     743.538    -241.372
  C     -205.041     742.225    -243.496
  O     -204.669     742.159    -242.125
  C     -203.808     742.320    -244.409
  O     -202.888     741.219    -244.149
  C     -204.144     742.272    -245.899
  O     -203.162     743.035    -246.607
  C     -203.953     740.803    -246.235
  O     -203.797     740.600    -247.638
  C     -202.726     740.487    -245.379
  N     -201.018     736.117    -247.233
  C     -201.028     737.382    -247.793
  N     -200.465     737.505    -249.013
  N     -201.538     738.431    -247.203
  C     -202.038     738.164    -245.970
  C     -202.094     736.953    -245.314
  C     -201.547     735.797    -245.988
  O     -201.527     734.653    -245.546
  N     -202.700     737.082    -244.088
  C     -203.008     738.366    -244.010
  N     -202.598     739.065    -245.111
  O     -205.255     744.612    -242.125
  O     -204.587     743.542    -239.899
  H     -203.066     741.181    -247.938
  H     -205.645     745.220    -241.475
  H     -200.619     735.343    -247.732
  H     -203.525     738.833    -243.187
  H     -201.794     740.808    -245.853
  H     -204.825     740.231    -245.901
  H     -200.010     736.748    -249.495
  H     -205.139     742.639    -246.160
  H     -200.416     738.430    -249.427
  H     -203.273     743.249    -244.180
  H     -205.685     743.091    -243.673
  H     -205.647     741.344    -243.738
  P     -203.694     744.218    -247.543
  C     -202.090     746.199    -247.062
  O     -202.420     745.120    -247.905
  O     -204.538     745.144    -246.543
  O     -204.518     743.772    -248.713
  H     -205.214     745.644    -247.034
  H     -201.233     745.918    -246.437
  H     -202.927     746.482    -246.408
  H     -201.815     747.054    -247.670
  H     -201.297     745.295    -241.428
  H     -202.225     744.851    -240.016
  H     -202.892     745.965    -241.185

 3  4  5  6  7  8  9  10  11  12  23  26  30  31 0
 6-311+G(2d,p)
 ****
 33  35  36  37  38 0
 6-311+G(2d,p)
 ****
 1  2  13  14  15  16  17  18  19  20  21  22  24  25 0
 3-21G
 ****
 27  28  29  32  34  39  40  41  42  43  44  45  46  47  48  49 0
 3-21G
 ****


