%nproc=1
%NoSave
%Mem=1900MB
#P OB98/GEN NMR

erre ene a

0 1
  C     -827.260    -892.758    1446.603
  O     -828.059    -892.828    1445.428
  H     -827.637    -891.948    1447.231
  H     -826.228    -892.528    1446.328
  H     -827.294    -893.698    1447.158
  P     -827.722    -894.018    1444.400
  C     -829.779    -895.498    1444.949
  O     -828.366    -895.348    1445.026
  C     -830.384    -895.748    1446.328
  O     -830.054    -894.618    1447.198
  C     -831.914    -895.908    1446.351
  O     -832.239    -896.898    1447.351
  C     -832.390    -894.548    1446.805
  O     -833.702    -894.598    1447.367
  C     -831.309    -894.188    1447.814
  N     -833.572    -890.638    1450.540
  C     -833.791    -891.988    1450.487
  N     -834.770    -892.488    1451.267
  N     -833.112    -892.818    1449.721
  C     -832.144    -892.178    1449.008
  C     -831.813    -890.858    1448.976
  C     -832.618    -889.948    1449.793
  O     -832.470    -888.738    1449.890
  N     -830.809    -890.608    1448.107
  C     -830.477    -891.798    1447.609
  N     -831.286    -892.788    1448.126
  O     -826.144    -894.218    1444.607
  O     -828.065    -893.748    1442.982
  H     -834.328    -894.868    1446.665
  H     -825.650    -893.698    1443.958
  H     -834.119    -890.048    1451.151
  H     -829.716    -891.998    1446.881
  H     -831.415    -894.748    1448.758
  H     -832.413    -893.848    1445.961
  H     -835.292    -891.928    1451.922
  H     -832.338    -896.218    1445.387
  H     -834.911    -893.478    1451.279
  H     -829.877    -896.648    1446.770
  H     -830.011    -896.348    1444.295
  H     -830.228    -894.588    1444.499
  P     -831.963    -898.428    1447.026
  C     -830.681    -899.188    1449.188
  O     -830.626    -898.878    1447.795
  O     -831.498    -898.398    1445.502
  O     -833.150    -899.318    1447.248
  H     -831.738    -899.248    1445.055
  H     -829.706    -899.466    1449.530
  H     -831.359    -900.000    1449.346
  H     -831.019    -898.330    1449.731

 6  7  8  9  10  11  12  13  14  15  26  29  33  34 0
 6-311+G(2d,p)
 ****
 36  38  39  40  41 0
 6-311+G(2d,p)
 ****
 1  2  3  4  5  16  17  18  19  20  21  22  23  24  25 0
 3-21G
 ****
 27  28  30  31  32  35  37  42  43  44  45  46  47 0
 3-21G
 ****
 48  49 0
 3-21G
 ****


