%nproc=1
%NoSave
%Mem=1900MB
#P OB98/GEN NMR

erre ene a

0 1
  C       84.607     873.846     191.640
  O       83.350     874.154     192.213
  H       84.545     873.974     190.556
  H       84.865     872.804     191.857
  H       85.380     874.512     192.039
  P       83.264     874.192     193.811
  C       82.327     871.743     193.964
  O       83.336     872.674     194.326
  C       81.586     871.255     195.210
  O       82.520     870.864     196.235
  C       80.734     872.317     195.870
  O       79.572     872.639     195.128
  C       80.439     871.646     197.207
  O       79.402     870.664     197.077
  C       81.798     870.971     197.505
  N       82.575     871.686     198.509
  C       82.801     870.998     199.710
  O       82.355     869.863     199.867
  N       83.483     871.632     200.717
  C       83.936     872.836     200.525
  N       84.609     873.421     201.560
  C       83.749     873.586     199.267
  C       83.065     872.956     198.308
  O       81.740     874.582     194.070
  O       84.255     875.091     194.482
  H       78.568     871.155     196.965
  H       81.099     873.995     193.618
  H       84.151     874.585     199.149
  H       82.887     873.432     197.360
  H       81.649     869.934     197.865
  H       80.108     872.359     197.967
  H       81.330     873.219     196.072
  H       80.991     870.378     194.930
  H       84.695     872.887     202.419
  H       82.747     870.902     193.406
  H       84.971     874.355     201.541
  H       81.626     872.256     193.297
  P       78.921     874.096     195.212
  C       77.764     873.436     197.421
  O       78.633     874.367     196.773
  O       77.759     874.332     194.311
  O       80.176     875.077     194.937
  H       80.903     874.984     195.574
  H       77.646     873.713     198.448
  H       78.186     872.454     197.363
  H       76.809     873.443     196.938

 6  7  8  9  10  11  12  13  14  15  16  26  30  31  32  33  35 0
 6-311+G(2d,p)
 ****
 37  38 0
 6-311+G(2d,p)
 ****
 1  2  3  4  5  17  18  19  20  21  22  23  24  25 0
 3-21G
 ****
 27  28  29  34  36  39  40  41  42  43  44  45  46 0
 3-21G
 ****


