%nproc=1
%NoSave
%Mem=1900MB
#P OB98/GEN NMR

erre ene a

0 1
  C       53.874     -50.706     -82.198
  O       52.562     -50.940     -82.666
  H       53.995     -51.195     -81.227
  H       54.045     -49.633     -82.075
  H       54.607     -51.122     -82.896
  P       52.192     -50.339     -84.107
  C       53.312     -50.384     -86.453
  O       53.433     -50.678     -85.067
  C       54.646     -49.873     -86.990
  O       54.970     -48.614     -86.357
  C       55.829     -50.791     -86.705
  O       55.883     -51.882     -87.607
  C       56.996     -49.824     -86.850
  O       57.380     -49.664     -88.222
  C       56.410     -48.512     -86.314
  N       57.340     -44.787     -82.962
  C       56.846     -44.769     -84.219
  N       56.609     -45.813     -85.042
  C       56.931     -46.969     -84.440
  C       57.451     -47.144     -83.169
  C       57.655     -45.981     -82.408
  N       58.191     -45.997     -81.143
  N       57.695     -48.481     -82.925
  C       57.321     -49.103     -84.024
  N       56.848     -48.230     -84.963
  O       52.312     -48.758     -83.875
  O       50.853     -50.728     -84.635
  H       56.590     -49.338     -88.696
  H       51.433     -48.392     -83.665
  H       56.612     -43.785     -84.618
  H       57.381     -50.172     -84.189
  H       56.691     -47.650     -86.932
  H       57.874     -50.176     -86.307
  H       55.791     -51.147     -85.668
  H       54.543     -49.695     -88.068
  H       52.548     -49.611     -86.594
  H       53.005     -51.291     -86.983
  H       58.332     -45.122     -80.665
  H       58.529     -46.871     -80.764
  P       56.548     -53.252     -87.111
  C       56.032     -54.991     -85.247
  O       55.818     -53.680     -85.747
  O       58.007     -52.801     -86.636
  O       56.604     -54.327     -88.143
  H       58.668     -53.008     -87.323
  H       55.481     -55.121     -84.339
  H       57.075     -55.134     -85.055
  H       55.701     -55.707     -85.970

 6  7  8  9  10  11  12  13  14  15  25  28  32  33  34  35 0
 6-311+G(2d,p)
 ****
 36  37  40 0
 6-311+G(2d,p)
 ****
 1  2  3  4  5  16  17  18  19  20  21  22  23  24 0
 3-21G
 ****
 26  27  29  30  31  38  39 41  42  43  44  45  46  47  48 0
 3-21G
 ****


