%nproc=1
%NoSave
%Mem=1900MB
#P OB98/GEN NMR

erre ene a

0 1
  C      264.878    -393.849    1029.074
  O      265.380    -392.534    1029.314
  P      266.900    -392.387    1029.838
  C      267.891    -391.707    1027.561
  O      267.882    -392.680    1028.600
  C      269.350    -391.402    1027.131
  O      270.083    -390.758    1028.193
  C      270.146    -392.629    1026.786
  O      269.759    -393.152    1025.514
  C      271.574    -392.107    1026.867
  O      271.933    -391.418    1025.647
  C      271.477    -391.085    1028.023
  N      272.054    -391.583    1029.267
  C      273.388    -392.012    1029.181
  O      273.982    -391.993    1028.112
  N      274.007    -392.466    1030.336
  C      273.348    -392.488    1031.450
  N      274.003    -392.955    1032.543
  C      271.938    -392.066    1031.573
  C      271.372    -391.626    1030.443
  O      267.223    -393.103    1031.106
  O      267.045    -390.787    1030.012
  H      272.859    -391.134    1025.752
  H      267.695    -390.624    1030.733
  H      271.431    -392.089    1032.521
  H      270.331    -391.291    1030.451
  H      271.989    -390.158    1027.757
  H      272.303    -392.907    1027.010
  H      270.005    -393.407    1027.554
  H      269.309    -390.721    1026.279
  H      274.962    -393.241    1032.428
  H      267.407    -390.803    1027.897
  H      273.598    -392.954    1033.479
  H      267.324    -392.094    1026.715
  P      269.426    -394.727    1025.428
  C      267.089    -394.001    1024.556
  O      267.845    -394.891    1025.378
  O      269.825    -395.259    1026.895
  O      270.179    -395.457    1024.369
  H      270.170    -396.167    1026.824
  H      266.093    -394.448    1024.398
  H      267.572    -393.851    1023.592
  H      266.976    -393.037    1025.062
  H      263.866    -393.788    1028.733
  H      264.916    -394.416    1029.981
  H      265.477    -394.329    1028.328

 3  4  5  6  7  8  9  10  11  12  13  23  27  28  29  30  32 0
 6-311+G(2d,p)
 ****
 34  35 0
 6-311+G(2d,p)
 ****
 1  2  14  15  16  17  18  19  20  21  22  24  25  26 0
 3-21G
 ****
 31  33  36  37  38  39  40  41  42  43  44  45  46 0
 3-21G
 ****


