%nproc=1
%NoSave
%Mem=1900MB
#P OB98/GEN NMR

erre ene a

0 1
  C      -24.036     -21.358      19.106
  O      -24.844     -22.520      19.029
  P      -26.424     -22.311      18.825
  C      -27.103     -22.598      21.317
  O      -26.984     -21.716      20.207
  C      -28.002     -22.008      22.403
  O      -27.321     -20.887      23.018
  C      -29.358     -21.517      21.894
  O      -30.333     -21.804      22.897
  C      -29.178     -20.012      21.799
  O      -30.424     -19.325      21.883
  C      -28.213     -19.754      22.967
  N      -27.480     -18.502      22.810
  C      -27.417     -17.661      23.924
  O      -28.031     -17.952      24.951
  N      -26.706     -16.490      23.832
  C      -26.195     -16.137      22.694
  N      -25.498     -14.970      22.654
  C      -26.344     -16.937      21.461
  C      -26.972     -18.104      21.596
  O      -26.984     -23.810      18.815
  O      -26.798     -21.557      17.591
  H      -30.297     -18.419      21.522
  H      -27.765     -23.886      18.234
  H      -25.930     -16.580      20.529
  H      -27.107     -18.767      20.751
  H      -28.760     -19.719      23.919
  H      -28.703     -19.754      20.845
  H      -29.651     -21.983      20.948
  H      -28.142     -22.768      23.182
  H      -25.423     -14.433      23.509
  H      -26.111     -22.762      21.747
  H      -25.065     -14.615      21.811
  H      -27.490     -23.563      20.974
  P      -31.792     -22.260      22.409
  C      -32.749     -19.880      22.535
  O      -32.413     -20.965      21.693
  O      -32.601     -22.277      23.795
  O      -31.925     -23.560      21.691
  H      -33.506     -22.606      23.642
  H      -33.028     -19.026      21.911
  H      -31.896     -19.599      23.157
  H      -33.603     -20.147      23.165
  H      -23.014     -21.643      19.241
  H      -24.352     -20.758      19.934
  H      -24.133     -20.796      18.201

 3  4  5  6  7  8  9  10  11  12  13  21  23  27  28  29  30  32 0
 6-311+G(2d,p)
 ****
 34  35 0
 6-311+G(2d,p)
 ****
 1  2  14  15  16  17  18  19  20  22  24  25  26 0
 3-21G
 ****
 31  33  36  37  38  39  40  41  42  43  44  45  46 0
 3-21G
 ****


