%nproc=1
%NoSave
%Mem=1900MB
#P OB98/GEN NMR

erre ene a

0 1
  C      462.957     212.455    -341.387
  O      461.703     211.805    -341.305
  H      463.365     212.552    -340.377
  H      462.843     213.453    -341.814
  H      463.655     211.869    -341.992
  P      460.896     211.546    -342.663
  C      461.728     209.149    -343.163
  O      460.642     209.960    -342.729
  C      461.324     207.684    -343.144
  O      460.995     207.268    -341.807
  C      460.102     207.362    -344.009
  O      460.475     207.237    -345.366
  C      459.655     206.053    -343.380
  O      460.509     204.985    -343.824
  C      459.883     206.331    -341.886
  N      456.380     205.612    -338.292
  C      457.355     204.758    -338.767
  N      457.372     203.513    -338.230
  N      458.220     205.080    -339.689
  C      458.036     206.327    -340.179
  C      457.101     207.257    -339.808
  C      456.183     206.909    -338.738
  O      455.315     207.640    -338.283
  N      457.182     208.389    -340.576
  C      458.196     208.160    -341.385
  N      458.739     206.911    -341.194
  O      461.496     212.114    -343.912
  O      459.441     212.138    -342.368
  H      460.407     204.926    -344.792
  H      459.375     213.069    -342.657
  H      455.727     205.297    -337.590
  H      458.571     208.855    -342.126
  H      460.171     205.429    -341.334
  H      458.634     205.780    -343.639
  H      456.572     203.133    -337.739
  H      459.300     208.105    -343.872
  H      458.049     202.855    -338.594
  H      462.191     207.089    -343.460
  H      462.569     209.328    -342.479
  H      462.034     209.435    -344.176
  P      459.420     207.510    -346.550
  C      460.643     209.743    -347.004
  O      460.165     208.513    -347.550
  O      458.076     207.971    -346.094
  O      459.385     206.150    -347.382
  H      458.727     205.493    -347.044
  H      461.117     210.315    -347.774
  H      461.349     209.538    -346.227
  H      459.821     210.298    -346.602

 6  7  8  9  10  11  12  13  14  15  26  29  33  34 0
 6-311+G(2d,p)
 ****
 36  38  39  40  41 0
 6-311+G(2d,p)
 ****
 1  2  3  4  5  16  17  18  19  20  21  22  23  24  25 0
 3-21G
 ****
 27  28  30  31  32  35  37  42  43  44  45  46  47 0
 3-21G
 ****
 48  49 0
 3-21G
 ****


