%nproc=1
%NoSave
%Mem=1900MB
#P OB98/GEN NMR

erre ene a

0 1
  C       70.443    -481.987    -356.866
  O       69.334    -481.361    -357.520
  P       69.594    -480.741    -358.979
  C       68.323    -478.482    -358.641
  O       68.358    -479.755    -359.263
  C       66.916    -477.877    -358.719
  O       66.437    -477.912    -360.098
  C       65.871    -478.588    -357.847
  O       65.000    -477.571    -357.329
  C       65.131    -479.463    -358.843
  O       63.838    -479.823    -358.375
  C       65.146    -478.555    -360.079
  N       64.893    -479.287    -361.318
  C       63.636    -479.866    -361.457
  O       62.787    -479.852    -360.566
  N       63.404    -480.508    -362.645
  C       64.310    -480.684    -363.649
  O       64.048    -481.271    -364.695
  C       65.657    -480.149    -363.396
  C       65.880    -479.487    -362.259
  O       69.315    -482.006    -359.915
  O       70.951    -480.130    -359.120
  H       68.593    -482.573    -359.597
  H       63.392    -480.369    -359.058
  H       62.490    -480.907    -362.781
  H       66.420    -480.324    -364.143
  H       66.864    -479.101    -362.032
  H       64.389    -477.766    -359.980
  H       65.703    -480.377    -359.029
  H       66.318    -479.149    -357.021
  H       66.984    -476.822    -358.426
  H       69.025    -477.803    -359.143
  H       68.658    -478.576    -357.604
  P       65.406    -476.854    -355.947
  C       63.709    -478.294    -354.569
  O       64.164    -477.017    -354.946
  O       65.309    -475.315    -356.395
  O       66.753    -477.216    -355.415
  H       64.493    -475.109    -356.885
  H       63.026    -478.186    -353.721
  H       64.538    -478.935    -354.269
  H       63.162    -478.754    -355.398
  H       70.133    -482.354    -355.910
  H       71.230    -481.273    -356.736
  H       70.796    -482.802    -357.463

 3  4  5  6  7  8  9  10  11  12  13  24  28  29  30  31  32 0
 6-311+G(2d,p)
 ****
 33  34 0
 6-311+G(2d,p)
 ****
 1  2  14  15  16  17  18  19  20  21  22  23  25  26  27 0
 3-21G
 ****
 35  36  37  38  39  40  41  42  43  44  45 0
 3-21G
 ****


