%nproc=1
%NoSave
%Mem=1900MB
#P OB98/GEN NMR

erre ene a

0 1
  C     -218.841    -899.150    -114.646
  O     -220.098    -899.450    -115.231
  P     -221.333    -898.430    -115.301
  C     -221.719    -898.940    -117.842
  O     -221.508    -897.970    -116.813
  C     -222.488    -898.370    -119.057
  O     -223.869    -898.140    -118.692
  C     -221.921    -897.030    -119.496
  O     -220.776    -896.960    -120.320
  C     -223.118    -896.250    -120.011
  O     -223.253    -896.360    -121.423
  C     -224.298    -896.920    -119.297
  N     -228.504    -894.530    -117.573
  C     -228.339    -895.300    -118.720
  N     -229.404    -895.410    -119.532
  N     -227.213    -895.900    -119.026
  C     -226.202    -895.630    -118.157
  C     -226.234    -894.880    -117.014
  C     -227.500    -894.280    -116.626
  O     -227.693    -893.610    -115.628
  N     -224.996    -894.810    -116.402
  C     -224.214    -895.530    -117.220
  N     -224.907    -896.040    -118.298
  O     -221.352    -897.350    -114.267
  O     -222.625    -899.390    -115.048
  H     -222.503    -895.870    -121.826
  H     -223.276    -898.830    -114.556
  H     -229.392    -894.130    -117.345
  H     -223.159    -895.690    -117.051
  H     -225.091    -897.160    -119.996
  H     -223.008    -895.170    -119.791
  H     -230.245    -894.890    -119.414
  H     -221.601    -896.490    -118.558
  H     -229.242    -895.760    -120.469
  H     -222.507    -899.130    -119.872
  H     -222.266    -899.770    -117.394
  H     -220.744    -899.340    -118.173
  P     -219.330    -896.340    -119.935
  C     -218.073    -898.350    -120.888
  O     -218.326    -897.560    -119.755
  O     -219.547    -895.810    -118.432
  O     -218.862    -895.230    -120.830
  H     -218.826    -895.190    -118.195
  H     -217.625    -899.290    -120.573
  H     -217.372    -897.830    -121.548
  H     -219.004    -898.560    -121.432
  H     -218.196    -900.000    -114.731
  H     -218.977    -898.908    -113.613
  H     -218.402    -898.317    -115.153

 3  4  5  6  7  8  9  10  11  12  23  26  30  31 0
 6-311+G(2d,p)
 ****
 33  35  36  37  38 0
 6-311+G(2d,p)
 ****
 1  2  13  14  15  16  17  18  19  20  21  22  24  25 0
 3-21G
 ****
 27  28  29  32  34  39  40  41  42  43  44  45  46  47  48  49 0
 3-21G
 ****


