%nproc=1
%NoSave
%Mem=1900MB
#P OB98/GEN NMR

erre ene a

0 1
  C     -235.741    -115.502     -78.399
  O     -235.178    -116.078     -79.560
  H     -235.480    -114.440     -78.370
  H     -235.343    -115.986     -77.505
  H     -236.830    -115.597     -78.421
  P     -235.395    -117.654     -79.766
  C     -237.839    -117.278     -80.559
  O     -236.971    -117.922     -79.637
  C     -238.462    -118.318     -81.487
  O     -239.369    -119.161     -80.740
  C     -239.297    -117.723     -82.614
  O     -238.497    -117.232     -83.674
  C     -240.136    -118.926     -83.015
  O     -239.428    -119.780     -83.926
  C     -240.371    -119.633     -81.662
  N     -241.723    -119.420     -81.160
  C     -242.280    -120.478     -80.446
  O     -241.689    -121.536     -80.242
  N     -243.563    -120.293     -80.005
  C     -244.338    -119.196     -80.235
  O     -245.507    -119.124     -79.875
  C     -243.692    -118.100     -80.982
  C     -242.438    -118.262     -81.412
  O     -234.791    -118.280     -78.423
  O     -234.759    -118.226     -80.990
  H     -233.908    -118.657     -78.598
  H     -238.744    -120.237     -83.398
  H     -243.986    -121.052     -79.500
  H     -244.280    -117.210     -81.178
  H     -241.952    -117.479     -81.982
  H     -240.218    -120.717     -81.767
  H     -241.057    -118.624     -83.513
  H     -239.962    -116.943     -82.223
  H     -237.659    -118.948     -81.893
  H     -237.270    -116.560     -81.159
  H     -238.613    -116.736     -80.003
  P     -239.136    -116.159     -84.680
  C     -238.954    -114.143     -83.001
  O     -239.774    -115.002     -83.768
  O     -240.399    -116.965     -85.232
  O     -238.188    -115.675     -85.723
  H     -240.811    -117.537     -84.561
  H     -239.567    -113.447     -82.468
  H     -238.290    -113.610     -83.650
  H     -238.384    -114.722     -82.305

 6  7  8  9  10  11  12  13  14  15  16  27  31  32  33  34  35 0
 6-311+G(2d,p)
 ****
 36  37 0
 6-311+G(2d,p)
 ****
 1  2  3  4  5  17  18  19  20  21  22  23  24  25 0
 3-21G
 ****
 26  28  29  30  38  39  40  41  42  43  44  45 0
 3-21G
 ****


