%nproc=1
%NoSave
%Mem=1900MB
#P OB98/GEN NMR

erre ene a

0 1
  C       52.505      79.358    -142.849
  O       53.718      80.006    -142.521
  H       52.635      78.282    -142.716
  H       52.241      79.557    -143.891
  H       51.702      79.701    -142.191
  P       53.730      81.607    -142.630
  C       56.296      81.394    -142.997
  O       55.076      81.996    -143.410
  C       57.142      81.057    -144.220
  O       56.453      80.084    -145.039
  C       57.403      82.245    -145.136
  O       58.423      83.093    -144.645
  C       57.769      81.541    -146.432
  O       59.149      81.155    -146.446
  C       56.869      80.301    -146.406
  N       55.291      80.490    -151.257
  C       56.501      80.242    -150.711
  N       56.838      80.198    -149.405
  C       55.760      80.413    -148.631
  C       54.465      80.675    -149.044
  C       54.242      80.708    -150.431
  N       53.016      80.984    -150.988
  N       53.641      80.883    -147.956
  C       54.421      80.740    -146.904
  N       55.709      80.452    -147.264
  O       54.015      82.069    -141.124
  O       52.481      82.213    -143.172
  H       59.664      81.976    -146.327
  H       53.177      82.335    -140.702
  H       57.308      80.067    -151.416
  H       54.107      80.843    -145.873
  H       57.398      79.397    -146.733
  H       57.598      82.191    -147.290
  H       56.474      82.810    -145.293
  H       58.086      80.612    -143.881
  H       56.076      80.474    -142.445
  H       56.828      82.087    -142.337
  H       52.943      81.059    -151.989
  H       52.253      81.261    -150.382
  P       58.300      84.662    -144.950
  C       60.770      84.984    -144.176
  O       59.785      85.221    -145.174
  O       57.863      85.292    -143.545
  O       57.340      85.009    -146.037
  H       57.254      86.042    -143.693
  H       61.698      85.421    -144.480
  H       60.898      83.930    -144.044
  H       60.455      85.423    -143.253

 6  7  8  9  10  11  12  13  14  15  25  28  32  33  34  35 0
 6-311+G(2d,p)
 ****
 36  37  40 0
 6-311+G(2d,p)
 ****
 1  2  3  4  5  16  17  18  19  20  21  22  23  24 0
 3-21G
 ****
 26  27  29  30  31  38  39 41  42  43  44  45  46  47  48 0
 3-21G
 ****


