%nproc=1
%NoSave
%Mem=1900MB
#P OB98/GEN NMR

erre ene a

0 1
  C       52.246      54.490    -110.632
  O       51.672      53.408    -109.895
  P       52.122      53.121    -108.383
  C       53.303      50.914    -108.924
  O       53.459      52.224    -108.389
  C       54.327      49.909    -108.378
  O       55.643      50.152    -108.934
  C       54.478      49.905    -106.850
  O       54.770      48.553    -106.486
  C       55.689      50.798    -106.648
  O       56.288      50.619    -105.366
  C       56.557      50.392    -107.845
  N       57.551      51.408    -108.183
  C       58.893      51.065    -108.007
  O       59.197      49.968    -107.528
  N       59.860      51.988    -108.329
  C       59.511      53.184    -108.693
  N       60.513      54.062    -108.974
  C       58.103      53.617    -108.811
  C       57.183      52.683    -108.551
  O       51.033      52.600    -107.494
  O       52.636      54.548    -107.859
  H       55.579      50.664    -104.687
  H       52.479      54.613    -106.896
  H       57.860      54.632    -109.095
  H       56.128      52.905    -108.616
  H       57.084      49.448    -107.641
  H       55.394      51.851    -106.729
  H       53.590      50.273    -106.326
  H       54.021      48.913    -108.721
  H       61.467      53.731    -108.857
  H       53.403      50.968    -110.016
  H       60.356      55.045    -109.155
  H       52.286      50.560    -108.712
  P       53.784      47.689    -105.568
  C       55.012      48.338    -103.414
  O       53.782      48.373    -104.119
  O       54.057      46.219    -105.560
  O       52.311      48.006    -106.126
  H       51.697      47.318    -105.816
  H       54.946      49.009    -102.554
  H       55.836      48.662    -104.059
  H       55.203      47.322    -103.062
  H       51.821      54.518    -111.613
  H       53.304      54.350    -110.706
  H       52.043      55.412    -110.129

 3  4  5  6  7  8  9  10  11  12  13  23  27  28  29  30  32 0
 6-311+G(2d,p)
 ****
 34  35 0
 6-311+G(2d,p)
 ****
 1  2  14  15  16  17  18  19  20  21  22  24  25  26 0
 3-21G
 ****
 31  33  36  37  38  39  40  41  42  43  44  45  46 0
 3-21G
 ****


