%nproc=1
%NoSave
%Mem=1900MB
#P OB98/GEN NMR

erre ene a

0 1
  C     -499.358    -227.034     -34.277
  O     -499.640    -226.523     -32.988
  P     -498.449    -225.778     -32.212
  C     -498.858    -223.225     -32.510
  O     -499.057    -224.387     -31.704
  C     -499.516    -222.008     -31.862
  O     -500.951    -222.152     -31.884
  C     -499.147    -221.810     -30.403
  O     -497.856    -221.241     -30.291
  C     -500.267    -220.896     -29.929
  O     -499.951    -219.518     -30.183
  C     -501.466    -221.353     -30.793
  N     -502.465    -222.088     -30.026
  C     -503.694    -221.442     -29.861
  O     -503.877    -220.315     -30.331
  N     -504.673    -222.069     -29.131
  C     -504.440    -223.235     -28.609
  N     -505.446    -223.816     -27.900
  C     -503.146    -223.938     -28.745
  C     -502.212    -223.312     -29.454
  O     -497.458    -225.344     -33.391
  O     -497.766    -226.606     -31.172
  H     -499.206    -219.300     -29.582
  H     -496.545    -225.264     -33.067
  H     -503.005    -224.910     -28.293
  H     -501.233    -223.755     -29.601
  H     -501.958    -220.488     -31.252
  H     -500.447    -220.986     -28.855
  H     -499.192    -222.762     -29.858
  H     -499.252    -221.119     -32.451
  H     -506.317    -223.306     -27.820
  H     -499.311    -223.388     -33.494
  H     -505.373    -224.731     -27.475
  H     -497.785    -223.064     -32.641
  P     -497.190    -221.192     -28.832
  C     -495.366    -222.872     -29.492
  O     -495.648    -221.548     -29.073
  O     -497.745    -222.536     -28.163
  O     -497.470    -219.987     -27.999
  H     -497.487    -222.572     -27.219
  H     -494.310    -222.937     -29.769
  H     -495.975    -223.135     -30.360
  H     -495.559    -223.570     -28.671
  H     -500.234    -227.501     -34.675
  H     -498.569    -227.754     -34.211
  H     -499.057    -226.233     -34.920

 3  4  5  6  7  8  9  10  11  12  13  21  23  27  28  29  30  32 0
 6-311+G(2d,p)
 ****
 34  35 0
 6-311+G(2d,p)
 ****
 1  2  14  15  16  17  18  19  20  22  24  25  26 0
 3-21G
 ****
 31  33  36  37  38  39  40  41  42  43  44  45  46 0
 3-21G
 ****


