%nproc=1
%NoSave
%Mem=1900MB
#P OB98/GEN NMR

erre ene a

0 1
  C      361.502    -213.092     186.073
  O      362.167    -212.080     186.838
  P      362.130    -210.576     186.289
  C      364.590    -209.741     186.424
  O      363.550    -210.258     185.612
  C      365.771    -209.295     185.556
  O      366.329    -210.395     184.802
  C      365.407    -208.230     184.527
  O      365.404    -206.927     185.093
  C      366.560    -208.364     183.545
  O      367.719    -207.673     184.054
  C      366.802    -209.878     183.534
  N      366.010    -209.911     178.539
  C      366.793    -209.076     179.313
  N      367.469    -208.106     178.653
  N      366.900    -209.175     180.609
  C      366.185    -210.201     181.129
  C      365.374    -211.094     180.469
  C      365.250    -210.963     179.035
  O      364.563    -211.667     178.300
  N      364.804    -211.986     181.339
  C      365.284    -211.648     182.522
  N      366.114    -210.557     182.447
  O      362.182    -209.706     187.635
  O      360.930    -210.251     185.466
  H      368.440    -207.828     183.410
  H      361.742    -208.848     187.490
  H      365.962    -209.788     177.541
  H      365.060    -212.158     183.448
  H      367.864    -210.131     183.449
  H      366.332    -207.924     182.570
  H      367.471    -208.002     177.651
  H      364.458    -208.467     184.032
  H      368.073    -207.502     179.199
  H      366.553    -208.895     186.219
  H      364.924    -210.491     187.145
  H      364.196    -208.911     187.021
  P      364.035    -206.090     185.037
  C      364.187    -205.093     182.643
  O      363.603    -206.058     183.494
  O      364.523    -204.595     185.336
  O      362.992    -206.533     186.003
  H      363.823    -204.102     185.805
  H      363.900    -205.321     181.615
  H      365.276    -205.119     182.720
  H      363.820    -204.095     182.897
  H      361.612    -214.038     186.561
  H      361.935    -213.142     185.096
  H      360.463    -212.852     185.991

 3  4  5  6  7  8  9  10  11  12  23  26  30  31 0
 6-311+G(2d,p)
 ****
 33  35  36  37  38 0
 6-311+G(2d,p)
 ****
 1  2  13  14  15  16  17  18  19  20  21  22  24  25 0
 3-21G
 ****
 27  28  29  32  34  39  40  41  42  43  44  45  46  47  48  49 0
 3-21G
 ****


