%nproc=1
%NoSave
%Mem=1900MB
#P OB98/GEN NMR

erre ene a

0 1
  C       66.881     212.753    -422.390
  O       66.193     213.006    -421.178
  H       67.913     213.092    -422.282
  H       66.411     213.305    -423.209
  H       66.877     211.682    -422.607
  P       64.653     212.558    -421.122
  C       65.098     210.305    -419.923
  O       64.710     210.954    -421.126
  C       65.558     208.876    -420.209
  O       64.561     208.162    -420.965
  C       66.840     208.786    -421.032
  O       67.981     208.974    -420.211
  C       66.746     207.359    -421.550
  O       67.164     206.440    -420.519
  C       65.237     207.196    -421.816
  N       64.883     205.124    -426.496
  C       65.497     204.698    -425.374
  N       65.586     205.323    -424.177
  C       64.953     206.507    -424.207
  C       64.281     207.071    -425.285
  C       64.247     206.319    -426.471
  N       63.612     206.755    -427.615
  N       63.753     208.296    -424.942
  C       64.060     208.451    -423.665
  N       64.812     207.408    -423.186
  O       63.758     213.193    -422.128
  O       64.296     212.881    -419.592
  H       66.943     205.542    -420.819
  H       65.046     212.656    -419.012
  H       65.983     203.729    -425.438
  H       63.742     209.277    -423.048
  H       64.881     206.202    -421.527
  H       67.394     207.188    -422.411
  H       66.823     209.476    -421.879
  H       65.671     208.360    -419.247
  H       64.261     210.289    -419.214
  H       63.782     206.239    -428.464
  H       63.248     207.695    -427.628
  H       65.908     210.882    -419.483
  P       68.854     210.314    -420.320
  C       69.649     211.147    -418.019
  O       68.588     211.144    -418.969
  O       68.660     211.097    -421.571
  O       70.368     209.826    -420.151
  H       70.955     210.333    -420.742
  H       69.362     211.726    -417.166
  H       70.524     211.574    -418.463
  H       69.858     210.143    -417.714

 6  7  8  9  10  11  12  13  14  15  25  28  32  33  34  35 0
 6-311+G(2d,p)
 ****
 36  39  40 0
 6-311+G(2d,p)
 ****
 1  2  3  4  5  16  17  18  19  20  21  22  23  24 0
 3-21G
 ****
 26  27  29  30  31  37  38  41  42  43  44  45  46  47 0
 3-21G
 ****
 48 0
 3-21G
 ****


