%nproc=1
%NoSave
%Mem=1900MB
#P OB98/GEN NMR

erre ene a

0 1
  C      272.053    -892.950    -164.803
  O      272.078    -894.040    -163.902
  H      272.792    -892.200    -164.473
  H      271.069    -892.480    -164.793
  H      272.304    -893.270    -165.810
  P      271.249    -895.340    -164.311
  C      269.432    -895.380    -162.440
  O      269.744    -895.100    -163.802
  C      268.104    -894.730    -162.055
  O      267.074    -895.210    -162.956
  C      267.639    -895.040    -160.620
  O      266.996    -893.870    -160.090
  C      266.627    -896.140    -160.819
  O      265.685    -896.250    -159.762
  C      265.980    -895.710    -162.147
  N      265.267    -896.790    -162.810
  C      263.919    -896.610    -163.058
  O      263.301    -895.570    -162.852
  N      263.264    -897.700    -163.589
  C      263.803    -898.910    -163.875
  O      263.165    -899.850    -164.338
  C      265.243    -899.050    -163.591
  C      265.901    -897.990    -163.062
  O      271.798    -896.460    -163.308
  O      271.352    -895.760    -165.738
  H      272.570    -896.920    -163.687
  H      265.242    -895.390    -159.637
  H      262.284    -897.580    -163.784
  H      265.706    -900.000    -163.777
  H      266.956    -898.080    -162.823
  H      265.287    -894.860    -161.974
  H      267.124    -897.100    -160.937
  H      268.447    -895.360    -159.956
  H      268.178    -893.660    -162.216
  H      270.228    -894.980    -161.807
  H      269.382    -896.470    -162.298
  P      267.924    -892.680    -159.590
  C      267.234    -893.170    -157.105
  O      268.275    -893.010    -158.055
  O      266.863    -891.480    -159.508
  O      269.091    -892.430    -160.483
  H      265.981    -891.780    -159.223
  H      267.657    -893.383    -156.145
  H      266.600    -893.979    -157.403
  H      266.660    -892.269    -157.050

 6  7  8  9  10  11  12  13  14  15  16  27  31  32  33  34  35 0
 6-311+G(2d,p)
 ****
 36  37 0
 6-311+G(2d,p)
 ****
 1  2  3  4  5  17  18  19  20  21  22  23  24  25 0
 3-21G
 ****
 26  28  29  30  38  39  40  41  42  43  44  45 0
 3-21G
 ****


