%nproc=1
%NoSave
%Mem=1900MB
#P OB98/GEN NMR

erre ene a

0 1
  C     -946.958     757.467     367.050
  O     -947.099     756.060     367.207
  H     -946.213     757.656     366.275
  H     -946.624     757.931     367.983
  H     -947.908     757.905     366.740
  P     -947.921     755.525     368.481
  C     -949.688     754.782     366.748
  O     -949.462     755.440     367.993
  C     -951.051     754.082     366.732
  O     -952.109     755.018     367.055
  C     -951.432     753.516     365.364
  O     -950.641     752.437     364.926
  C     -952.937     753.324     365.531
  O     -953.255     752.099     366.196
  C     -953.317     754.536     366.437
  N     -954.011     755.582     365.687
  C     -955.389     755.493     365.650
  O     -956.032     754.567     366.171
  N     -956.032     756.473     364.946
  C     -955.435     757.481     364.261
  O     -956.068     758.336     363.639
  C     -953.968     757.517     364.311
  C     -953.318     756.579     365.018
  O     -947.729     756.295     369.756
  O     -947.494     753.989     368.587
  H     -954.225     752.006     366.183
  H     -947.741     753.610     369.474
  H     -957.037     756.427     364.918
  H     -953.447     758.305     363.772
  H     -952.240     756.567     365.063
  H     -953.969     754.205     367.252
  H     -953.457     753.314     364.563
  H     -951.320     754.321     364.617
  H     -951.045     753.309     367.493
  H     -948.897     754.036     366.607
  H     -949.629     755.521     365.939
  P     -950.363     752.131     363.395
  C     -947.825     752.778     363.398
  O     -949.137     753.033     362.889
  O     -951.556     752.019     362.503
  O     -949.672     750.663     363.486
  H     -949.955     750.173     362.696
  H     -947.132     753.465     362.959
  H     -947.536     751.777     363.155
  H     -947.825     752.901     364.461

 6  7  8  9  10  11  12  13  14  15  16  26  31  32  33  34  35 0
 6-311+G(2d,p)
 ****
 36  37 0
 6-311+G(2d,p)
 ****
 1  2  3  4  5  17  18  19  20  21  22  23  24  25 0
 3-21G
 ****
 27  28  29  30  38  39  40  41  42  43  44  45 0
 3-21G
 ****


