%nproc=1
%NoSave
%Mem=1900MB
#P OB98/GEN NMR

erre ene a

0 1
  C      531.406     394.524    -332.306
  O      531.161     393.465    -331.399
  H      530.835     395.401    -331.979
  H      531.085     394.249    -333.312
  H      532.469     394.779    -332.307
  P      531.875     392.063    -331.731
  C      529.631     390.857    -331.322
  O      530.999     390.976    -330.932
  C      529.125     389.435    -331.068
  O      529.919     388.509    -331.856
  C      529.233     389.000    -329.598
  O      528.117     388.161    -329.281
  C      530.512     388.168    -329.582
  O      530.542     387.247    -328.494
  C      530.457     387.513    -330.968
  N      534.143     384.096    -330.146
  C      532.874     384.185    -329.692
  N      531.952     385.125    -329.974
  C      532.425     386.001    -330.882
  C      533.696     386.035    -331.432
  C      534.587     385.023    -331.029
  N      535.883     384.936    -331.463
  N      533.820     387.119    -332.283
  C      532.644     387.724    -332.252
  N      531.778     387.086    -331.404
  O      533.341     392.009    -331.469
  O      531.428     391.821    -333.253
  H      531.362     386.710    -328.554
  H      530.475     391.988    -333.376
  H      532.571     383.402    -328.983
  H      532.373     388.615    -332.812
  H      529.796     386.628    -330.999
  H      531.383     388.819    -329.496
  H      529.287     389.837    -328.908
  H      528.088     389.354    -331.431
  H      529.520     391.093    -332.395
  H      536.465     384.180    -331.118
  H      536.238     385.621    -332.121
  H      529.048     391.580    -330.742
  P      526.826     388.817    -328.603
  C      526.887     388.090    -326.134
  O      526.311     387.864    -327.417
  O      525.761     389.272    -329.554
  O      527.426     390.071    -327.802
  H      526.854     390.851    -327.918
  H      526.470     387.401    -325.430
  H      526.677     389.091    -325.820
  H      527.946     387.948    -326.188

 6  7  8  9  10  11  12  13  14  15  25  28  32  33  34  35 0
 6-311+G(2d,p)
 ****
 36  39  40 0
 6-311+G(2d,p)
 ****
 1  2  3  4  5  16  17  18  19  20  21  22  23  24 0
 3-21G
 ****
 26  27  29  30  31  37  38  41  42  43  44  45  46  47 0
 3-21G
 ****
 48 0
 3-21G
 ****


