%nproc=1
%NoSave
%Mem=1900MB
#P OB98/GEN NMR

erre ene a

0 1
  C     -139.906     488.091     333.884
  O     -139.222     489.082     333.154
  H     -139.294     487.190     333.971
  H     -140.102     488.473     334.895
  H     -140.860     487.858     333.404
  P     -138.792     488.705     331.652
  C     -136.709     487.362     332.428
  O     -137.946     487.333     331.722
  C     -135.652     486.611     331.642
  O     -135.707     487.073     330.246
  C     -134.191     486.826     332.144
  O     -133.606     485.561     332.471
  C     -133.449     487.411     330.959
  O     -132.138     486.875     330.789
  C     -134.349     487.062     329.760
  N     -131.139     488.635     326.141
  C     -131.224     487.473     326.812
  N     -132.170     487.073     327.684
  C     -133.116     488.015     327.820
  C     -133.188     489.243     327.188
  C     -132.125     489.566     326.318
  N     -132.014     490.788     325.679
  N     -134.299     489.958     327.604
  C     -134.882     489.177     328.491
  N     -134.189     488.007     328.683
  O     -137.686     489.809     331.295
  O     -139.910     488.706     330.661
  H     -131.590     487.237     331.515
  H     -137.887     490.199     330.415
  H     -130.410     486.767     326.626
  H     -135.771     489.408     329.070
  H     -134.137     486.047     329.371
  H     -133.377     488.495     331.078
  H     -134.148     487.498     333.003
  H     -135.891     485.550     331.626
  H     -136.833     486.887     333.406
  H     -131.164     490.958     325.169
  H     -132.685     491.509     325.887
  H     -136.426     488.412     332.594
  P     -133.641     485.126     334.021
  C     -131.090     485.459     334.463
  O     -132.431     485.880     334.754
  O     -133.156     483.603     333.977
  O     -134.981     485.275     334.659
  H     -133.526     483.115     334.743
  H     -130.400     486.053     335.025
  H     -130.897     485.581     333.418
  H     -130.974     484.429     334.729

 6  7  8  9  10  11  12  13  14  15  25  28  32  33  34  35 0
 6-311+G(2d,p)
 ****
 36  39  40 0
 6-311+G(2d,p)
 ****
 1  2  3  4  5  16  17  18  19  20  21  22  23  24 0
 3-21G
 ****
 26  27  29  30  31  37  38  41  42  43  44  45  46  47  48 0
 3-21G
 ****


