%nproc=1
%NoSave
%Mem=1900MB
#P OB98/GEN NMR

erre ene a

0 1
  C     -199.373    -289.924     -87.268
  O     -198.814    -290.718     -88.317
  P     -199.591    -290.702     -89.726
  C     -197.891    -289.988     -91.564
  O     -198.899    -289.583     -90.643
  C     -196.529    -289.443     -91.146
  O     -196.136    -289.955     -89.862
  C     -195.394    -289.818     -92.089
  O     -195.368    -288.987     -93.240
  C     -194.181    -289.549     -91.208
  O     -193.851    -288.147     -91.238
  C     -194.688    -289.951     -89.813
  N     -191.031    -292.569     -87.473
  C     -191.136    -291.211     -87.709
  N     -190.136    -290.440     -87.227
  N     -192.130    -290.663     -88.355
  C     -193.070    -291.553     -88.752
  C     -193.080    -292.917     -88.578
  C     -191.958    -293.516     -87.890
  O     -191.799    -294.714     -87.682
  N     -194.209    -293.482     -89.111
  C     -194.896    -292.462     -89.579
  N     -194.242    -291.269     -89.398
  O     -201.002    -290.043     -89.346
  O     -199.751    -292.048     -90.345
  H     -193.384    -287.983     -92.082
  H     -201.691    -290.348     -89.967
  H     -190.241    -292.940     -86.977
  H     -195.869    -292.530     -90.051
  H     -194.387    -289.229     -89.046
  H     -193.289    -290.093     -91.538
  H     -189.381    -290.787     -86.661
  H     -195.435    -290.884     -92.350
  H     -190.218    -289.438     -87.361
  H     -196.608    -288.348     -91.076
  H     -198.139    -289.628     -92.563
  H     -197.878    -291.083     -91.613
  P     -195.756    -289.670     -94.641
  C     -197.629    -288.041     -95.402
  O     -197.301    -289.311     -94.879
  O     -195.768    -291.232     -94.295
  O     -194.827    -289.349     -95.762
  H     -195.548    -291.755     -95.088
  H     -196.957    -287.763     -96.219
  H     -197.571    -287.289     -94.607
  H     -198.650    -288.071     -95.786
  H     -198.770    -290.018     -86.389
  H     -200.366    -290.261     -87.056
  H     -199.401    -288.899     -87.573

 3  4  5  6  7  8  9  10  11  12  23  26  30  31  33  0
 6-311+G(2d,p)
 ****
 35  36  37  38 0
 6-311+G(2d,p)
 ****
 1  2  13  14  15  16  17  18  19  20  21  22  24  25  27  28  29 0
 3-21G
 ****
 32  34  39  40  41  42  43  44  45  46  47  48  49 0
 3-21G
 ****


