%nproc=1
%NoSave
%Mem=1900MB
#P OB98/GEN NMR

erre ene a

0 1
  C      511.901     491.489    -292.201
  O      512.561     490.237    -292.171
  P      511.777     488.998    -291.521
  C      510.918     488.213    -293.848
  O      510.581     488.660    -292.531
  C      510.185     486.911    -294.169
  O      510.718     485.839    -293.367
  C      508.699     486.946    -293.884
  O      508.009     487.641    -294.896
  C      508.373     485.457    -293.818
  O      508.088     484.937    -295.129
  C      509.678     484.848    -293.252
  N      509.524     484.389    -291.879
  C      509.985     483.090    -291.616
  O      510.461     482.404    -292.526
  N      509.852     482.596    -290.335
  C      509.314     483.326    -289.417
  N      509.213     482.781    -288.172
  C      508.798     484.682    -289.658
  C      508.934     485.154    -290.899
  O      511.032     489.666    -290.271
  O      512.645     487.852    -291.120
  H      507.880     483.980    -294.990
  H      510.862     489.006    -289.575
  H      508.349     485.259    -288.855
  H      508.580     486.141    -291.168
  H      509.989     483.989    -293.862
  H      507.484     485.260    -293.204
  H      508.509     487.403    -292.899
  H      510.371     486.664    -295.227
  H      509.560     481.845    -288.040
  H      512.001     488.036    -293.906
  H      508.819     483.276    -287.382
  H      510.651     488.997    -294.565
  P      506.564     488.241    -294.549
  C      507.729     490.217    -293.419
  O      506.796     489.176    -293.265
  O      505.830     486.963    -293.900
  O      505.775     488.830    -295.668
  H      504.890     487.173    -293.740
  H      507.678     490.865    -292.539
  H      507.495     490.813    -294.305
  H      508.743     489.814    -293.497
  H      512.538     492.217    -292.659
  H      511.671     491.795    -291.202
  H      510.996     491.402    -292.765

 3  4  5  6  7  8  9  10  11  12  13  21  23  27  28  29  30  32 0
 6-311+G(2d,p)
 ****
 34  35 0
 6-311+G(2d,p)
 ****
 1  2  14  15  16  17  18  19  20  22  24  25  26 0
 3-21G
 ****
 31  33  36  37  38  39  40  41  42  43  44  45  46 0
 3-21G
 ****


