%nproc=1
%NoSave
%Mem=1900MB
#P OB98/GEN NMR

erre ene a

0 1
  C     -211.185     329.292     -67.572
  O     -209.821     329.343     -67.947
  H     -211.455     330.242     -67.103
  H     -211.346     328.485     -66.853
  H     -211.812     329.144     -68.455
  P     -209.232     328.045     -68.682
  C     -207.135     328.261     -67.180
  O     -207.643     328.180     -68.504
  C     -205.743     327.640     -67.102
  O     -205.811     326.219     -67.323
  C     -204.756     328.173     -68.136
  O     -204.208     329.413     -67.723
  C     -203.715     327.067     -68.133
  O     -202.837     327.226     -67.000
  C     -204.573     325.798     -67.958
  N     -203.611     321.636     -70.806
  C     -203.003     322.130     -69.706
  N     -203.284     323.266     -69.027
  C     -204.318     323.911     -69.591
  C     -205.034     323.529     -70.713
  C     -204.654     322.326     -71.326
  N     -205.284     321.814     -72.442
  N     -206.025     324.448     -70.998
  C     -205.939     325.341     -70.036
  N     -204.897     325.082     -69.178
  O     -209.726     327.804     -70.067
  O     -209.598     326.902     -67.621
  H     -203.375     327.116     -66.195
  H     -209.478     327.229     -66.711
  H     -202.178     321.536     -69.319
  H     -206.612     326.181     -69.899
  H     -204.091     325.073     -67.290
  H     -203.087     327.085     -69.026
  H     -205.214     328.231     -69.131
  H     -205.361     327.793     -66.085
  H     -207.805     327.757     -66.478
  H     -204.841     321.041     -72.916
  H     -205.978     322.390     -72.900
  H     -207.090     329.322     -66.910
  P     -203.863     330.554     -68.795
  C     -201.425     330.649     -67.971
  O     -202.623     331.383     -68.192
  O     -205.017     331.390     -69.225
  O     -203.207     329.765     -70.023
  H     -203.489     330.157     -70.869
  H     -200.676     331.300     -67.571
  H     -201.082     330.238     -68.898
  H     -201.615     329.856     -67.278

 6  7  8  9  10  11  12  13  14  15  25  28  32  33  34  35 0
 6-311+G(2d,p)
 ****
 36  39  40 0
 6-311+G(2d,p)
 ****
 1  2  3  4  5  16  17  18  19  20  21  22  23  24 0
 3-21G
 ****
 26  27  29  30  31  37  38  41  42  43  44  45  46  47 0
 3-21G
 ****
 48 0
 3-21G
 ****


