%nproc=1
%NoSave
%Mem=1900MB
#P OB98/GEN NMR

erre ene a

0 1
  C      371.451      -8.363     -77.992
  O      372.326      -7.694     -77.106
  H      371.937      -8.514     -78.961
  H      371.201      -9.341     -77.570
  H      370.531      -7.786     -78.122
  P      372.847      -6.246     -77.562
  C      371.637      -3.947     -77.713
  O      371.519      -5.362     -77.750
  C      370.395      -3.320     -78.338
  O      370.335      -3.640     -79.748
  C      369.085      -3.825     -77.743
  O      368.744      -3.162     -76.537
  C      368.115      -3.477     -78.857
  O      367.828      -2.067     -78.830
  C      368.939      -3.829     -80.107
  N      366.959      -6.789     -83.786
  C      367.036      -5.447     -83.651
  N      367.599      -4.736     -82.652
  C      368.127      -5.553     -81.729
  C      368.132      -6.940     -81.732
  C      367.507      -7.564     -82.824
  N      367.398      -8.933     -82.949
  N      368.754      -7.427     -80.599
  C      369.131      -6.353     -79.936
  N      368.748      -5.195     -80.561
  O      373.343      -6.474     -79.066
  O      373.886      -5.623     -76.691
  H      367.215      -1.887     -79.567
  H      373.882      -5.719     -79.366
  H      366.585      -4.866     -84.452
  H      369.673      -6.359     -78.998
  H      368.719      -3.171     -80.954
  H      367.161      -4.001     -78.765
  H      369.099      -4.914     -77.608
  H      370.476      -2.231     -78.246
  H      372.524      -3.647     -78.280
  H      366.804      -9.281     -83.685
  H      367.668      -9.513     -82.168
  H      371.744      -3.618     -76.675
  P      367.746      -3.920     -75.530
  C      368.167      -5.865     -73.863
  O      368.466      -5.299     -75.133
  O      366.557      -4.389     -76.494
  O      367.259      -3.089     -74.393
  H      365.707      -4.398     -76.017
  H      368.716      -6.775     -73.740
  H      367.119      -6.070     -73.802
  H      368.441      -5.176     -73.092

 6  7  8  9  10  11  12  13  14  15  25  28  32  33  34  35 0
 6-311+G(2d,p)
 ****
 36  39  40 0
 6-311+G(2d,p)
 ****
 1  2  3  4  5  16  17  18  19  20  21  22  23  24 0
 3-21G
 ****
 26  27  29  30  31  37  38  41  42  43  44  45  46  47 0
 3-21G
 ****
 48 0
 3-21G
 ****


