%nproc=1
%NoSave
%Mem=1900MB
#P OB98/GEN NMR

erre ene a

0 1
  C     1050.505    -890.410    -335.529
  O     1050.019    -891.740    -335.667
  P     1049.660    -892.540    -334.312
  C     1050.943    -894.580    -335.380
  O     1049.807    -894.100    -334.669
  C     1051.091    -896.080    -335.173
  O     1051.109    -896.400    -333.750
  C     1049.950    -896.920    -335.744
  O     1050.041    -897.050    -337.159
  C     1050.105    -898.220    -334.965
  O     1051.152    -899.030    -335.549
  C     1050.525    -897.730    -333.589
  N     1049.433    -897.680    -332.613
  C     1048.936    -898.930    -332.188
  O     1049.390    -900.000    -332.622
  N     1047.880    -898.880    -331.320
  C     1047.259    -897.750    -330.873
  O     1046.292    -897.770    -330.115
  C     1047.803    -896.480    -331.381
  C     1048.850    -896.480    -332.206
  O     1048.077    -892.290    -334.232
  O     1050.446    -892.070    -333.123
  H     1047.688    -892.140    -335.113
  H     1051.365    -899.740    -334.882
  H     1047.541    -899.750    -330.986
  H     1047.318    -895.570    -331.039
  H     1049.258    -895.560    -332.586
  H     1051.332    -898.340    -333.178
  H     1049.192    -898.830    -334.972
  H     1048.980    -896.460    -335.501
  H     1052.048    -896.410    -335.603
  H     1051.828    -894.080    -335.001
  H     1050.836    -894.350    -336.454
  P     1048.927    -896.330    -338.050
  C     1048.838    -898.560    -339.393
  O     1048.835    -897.160    -339.418
  O     1049.676    -894.970    -338.468
  O     1047.625    -896.130    -337.321
  H     1050.596    -895.110    -338.700
  H     1048.413    -898.930    -340.346
  H     1048.249    -898.950    -338.584
  H     1049.875    -898.920    -339.311
  H     1050.702    -890.000    -336.497
  H     1051.408    -890.418    -334.955
  H     1049.771    -889.812    -335.031

 3  4  5  6  7  8  9  10  11  12  13  24  28  29  30  31  32 0
 6-311+G(2d,p)
 ****
 33  34 0
 6-311+G(2d,p)
 ****
 1  2  14  15  16  17  18  19  20  21  22  23  25  26  27 0
 3-21G
 ****
 35  36  37  38  39  40  41  42  43  44  45 0
 3-21G
 ****


