%nproc=1
%NoSave
%Mem=1900MB
#P OB98/GEN NMR

erre ene a

0 1
  C       30.710     -69.775       3.061
  O       31.683     -70.710       2.641
  H       30.149     -70.201       3.897
  H       30.017     -69.579       2.239
  H       31.177     -68.842       3.387
  P       32.871     -70.168       1.710
  C       33.241     -70.371      -0.852
  O       32.310     -70.176       0.202
  C       32.525     -70.850      -2.117
  O       32.302     -72.291      -2.008
  C       31.159     -70.184      -2.355
  O       30.972     -69.995      -3.763
  C       30.179     -71.248      -1.888
  O       28.892     -71.097      -2.478
  C       30.912     -72.516      -2.315
  N       26.970     -75.623      -2.192
  C       27.317     -74.650      -3.106
  N       26.452     -74.420      -4.116
  N       28.421     -73.949      -3.035
  C       29.209     -74.295      -1.986
  C       28.979     -75.232      -1.010
  C       27.743     -75.989      -1.088
  O       27.372     -76.849      -0.298
  N       29.991     -75.235      -0.083
  C       30.820     -74.286      -0.487
  N       30.386     -73.685      -1.636
  O       33.914     -71.384       1.732
  O       33.496     -68.887       2.151
  H       28.992     -71.145      -3.450
  H       34.590     -71.227       2.420
  H       26.102     -76.120      -2.282
  H       31.723     -73.985       0.021
  H       30.827     -72.706      -3.394
  H       30.070     -71.204      -0.797
  H       25.598     -74.937      -4.257
  H       31.030     -69.229      -1.832
  H       26.711     -73.735      -4.820
  H       33.187     -70.693      -2.976
  H       33.974     -71.128      -0.551
  H       33.768     -69.431      -1.047
  P       30.861     -68.491      -4.312
  C       29.210     -66.491      -4.081
  O       29.489     -67.851      -3.784
  O       30.590     -68.699      -5.877
  O       32.086     -67.666      -4.074
  H       31.014     -67.983      -6.385
  H       28.264     -66.221      -3.661
  H       29.180     -66.356      -5.142
  H       29.976     -65.871      -3.664

 6  7  8  9  10  11  12  13  14  15  26  29  33  34 0
 6-311+G(2d,p)
 ****
 36  38  39  40  41 0
 6-311+G(2d,p)
 ****
 1  2  3  4  5  16  17  18  19  20  21  22  23  24  25 0
 3-21G
 ****
 27  28  30  31  32  35  37  42  43  44  45  46  47 0
 3-21G
 ****
 48  49 0
 3-21G
 ****


