%nproc=1
%NoSave
%Mem=1900MB
#P OB98/GEN NMR

erre ene a

0 1
  C      633.326    -271.696     195.984
  O      634.281    -272.735     196.072
  H      633.818    -270.804     195.589
  H      632.919    -271.463     196.971
  H      632.518    -271.978     195.304
  P      633.831    -274.142     196.688
  C      632.959    -275.391     194.601
  O      632.614    -274.677     195.786
  C      632.423    -274.656     193.369
  O      633.050    -273.351     193.324
  C      632.748    -275.394     192.059
  O      631.599    -275.622     191.247
  C      633.883    -274.565     191.464
  O      633.993    -274.638     190.060
  C      633.606    -273.160     192.010
  N      634.791    -272.307     192.075
  C      635.309    -271.841     190.866
  O      634.831    -272.069     189.759
  N      636.429    -271.059     190.968
  C      637.073    -270.718     192.119
  O      638.071    -270.009     192.145
  C      636.492    -271.258     193.356
  C      635.398    -272.019     193.279
  O      633.570    -274.155     198.157
  O      635.027    -275.135     196.296
  H      633.984    -275.582     189.809
  H      635.595    -275.284     197.076
  H      636.806    -270.706     190.101
  H      636.984    -271.015     194.290
  H      634.941    -272.432     194.174
  H      632.863    -272.649     191.399
  H      634.829    -274.931     191.882
  H      633.119    -276.405     192.263
  H      631.346    -274.501     193.490
  H      632.518    -276.391     194.672
  H      634.049    -275.485     194.533
  P      630.611    -276.866     191.395
  C      628.298    -275.804     192.008
  O      629.470    -276.472     192.442
  O      631.270    -278.193     191.576
  O      629.835    -276.898     189.981
  H      629.645    -277.836     189.791
  H      627.657    -275.627     192.846
  H      627.786    -276.411     191.291
  H      628.565    -274.870     191.559

 6  7  8  9  10  11  12  13  14  15  16  26  31  32  33  34  35 0
 6-311+G(2d,p)
 ****
 36  37 0
 6-311+G(2d,p)
 ****
 1  2  3  4  5  17  18  19  20  21  22  23  24  25 0
 3-21G
 ****
 27  28  29  30  38  39  40  41  42  43  44  45 0
 3-21G
 ****


