%nproc=1
%NoSave
%Mem=1900MB
#P OB98/GEN NMR

erre ene a

0 1
  C     -241.286      32.183     -49.575
  O     -240.836      33.133     -50.520
  H     -240.497      31.444     -49.416
  H     -242.179      31.672     -49.947
  H     -241.511      32.674     -48.625
  P     -241.899      34.251     -50.970
  C     -244.028      34.117     -52.474
  O     -242.983      33.418     -51.816
  C     -245.215      33.184     -52.691
  O     -245.721      32.702     -51.426
  C     -246.406      33.840     -53.381
  O     -246.235      33.960     -54.784
  C     -247.503      32.855     -53.027
  O     -247.381      31.679     -53.848
  C     -247.160      32.541     -51.554
  N     -247.860      33.407     -50.602
  C     -248.927      32.834     -49.900
  O     -249.250      31.665     -50.096
  N     -249.629      33.615     -49.011
  C     -249.290      34.855     -48.831
  N     -250.027      35.585     -47.950
  C     -248.161      35.491     -49.537
  C     -247.500      34.722     -50.396
  O     -241.127      35.071     -52.107
  O     -242.465      35.095     -49.877
  H     -248.067      31.053     -53.551
  H     -241.746      35.709     -52.537
  H     -247.924      36.530     -49.362
  H     -246.661      35.122     -50.954
  H     -247.392      31.496     -51.311
  H     -248.508      33.254     -53.185
  H     -246.648      34.811     -52.932
  H     -244.859      32.310     -53.254
  H     -250.831      35.139     -47.530
  H     -243.649      34.479     -53.436
  H     -249.953      36.593     -47.882
  H     -244.345      34.973     -51.870
  P     -247.273      34.886     -55.585
  C     -249.864      35.042     -55.689
  O     -248.730      34.244     -55.382
  O     -246.938      34.565     -57.115
  O     -247.174      36.352     -55.283
  H     -246.994      35.369     -57.665
  H     -250.756      34.480     -55.504
  H     -249.830      35.329     -56.719
  H     -249.861      35.918     -55.075

 6  7  8  9  10  11  12  13  14  15  16  26  30  31  32  33  35 0
 6-311+G(2d,p)
 ****
 37  38 0
 6-311+G(2d,p)
 ****
 1  2  3  4  5  17  18  19  20  21  22  23  24  25 0
 3-21G
 ****
 27  28  29  34  36  39  40  41  42  43  44  45  46 0
 3-21G
 ****


