%nproc=1
%NoSave
%Mem=1900MB
#P OB98/GEN NMR

erre ene a

0 1
  C     -530.022     549.566    -347.759
  O     -530.419     549.099    -349.039
  P     -531.950     549.213    -349.515
  C     -531.604     550.350    -351.807
  O     -531.894     549.124    -351.128
  C     -531.759     550.161    -353.332
  O     -530.794     549.220    -353.820
  C     -533.139     549.628    -353.767
  O     -534.103     550.672    -353.747
  C     -532.802     549.112    -355.166
  O     -532.821     550.180    -356.132
  C     -531.358     548.548    -354.981
  N     -531.355     547.109    -354.846
  C     -530.117     546.465    -355.037
  O     -529.130     547.115    -355.326
  N     -530.054     545.102    -354.909
  C     -531.108     544.416    -354.652
  N     -530.996     543.052    -354.564
  C     -532.457     545.037    -354.483
  C     -532.510     546.366    -354.583
  O     -532.707     550.370    -348.957
  O     -532.569     547.780    -349.108
  H     -533.723     550.570    -356.050
  H     -532.708     547.741    -348.140
  H     -533.332     544.437    -354.261
  H     -533.431     546.915    -354.474
  H     -530.731     548.826    -355.837
  H     -533.523     548.348    -355.488
  H     -533.411     548.799    -353.129
  H     -531.551     551.132    -353.827
  H     -530.074     542.680    -354.718
  H     -530.569     550.658    -351.594
  H     -531.756     542.432    -354.391
  H     -532.274     551.135    -351.437
  P     -535.570     550.370    -353.201
  C     -535.518     552.450    -351.671
  O     -536.212     551.766    -352.702
  O     -535.706     549.228    -352.248
  O     -536.410     550.062    -354.555
  H     -536.958     549.269    -354.400
  H     -535.861     553.477    -351.632
  H     -534.454     552.385    -351.806
  H     -535.782     551.967    -350.711
  H     -528.972     549.403    -347.630
  H     -530.561     549.035    -347.003
  H     -530.233     550.612    -347.680

 3  4  5  6  7  8  9  10  11  12  13  23  27  28  29  30  32 0
 6-311+G(2d,p)
 ****
 34  35 0
 6-311+G(2d,p)
 ****
 1  2  14  15  16  17  18  19  20  21  22  24  25  26 0
 3-21G
 ****
 31  33  36  37  38  39  40  41  42  43  44  45  46 0
 3-21G
 ****


