%nproc=1
%NoSave
%Mem=1900MB
#P OB98/GEN NMR

erre ene a

0 1
  C     -260.817     410.867    -213.158
  O     -261.712     409.782    -213.314
  H     -260.615     411.007    -212.089
  H     -261.268     411.780    -213.553
  H     -259.868     410.667    -213.670
  P     -261.968     409.188    -214.782
  C     -261.755     406.769    -213.891
  O     -262.570     407.710    -214.587
  C     -262.504     405.446    -213.696
  O     -263.577     405.662    -212.719
  C     -263.155     404.895    -214.981
  O     -263.137     403.462    -214.888
  C     -264.573     405.432    -214.842
  O     -265.458     404.803    -215.732
  C     -264.791     405.205    -213.343
  N     -265.958     405.906    -212.811
  C     -267.080     405.142    -212.502
  O     -267.133     403.916    -212.633
  N     -268.165     405.839    -212.045
  C     -268.240     407.188    -211.875
  O     -269.232     407.758    -211.437
  C     -267.030     407.947    -212.246
  C     -265.964     407.284    -212.694
  O     -260.817     409.278    -215.729
  O     -263.233     410.020    -215.311
  H     -262.925     410.753    -215.881
  H     -265.659     403.890    -215.423
  H     -268.988     405.296    -211.814
  H     -267.067     409.024    -212.141
  H     -265.055     407.810    -212.974
  H     -264.888     404.135    -213.123
  H     -264.597     406.503    -215.078
  H     -262.639     405.210    -215.889
  H     -261.815     404.713    -213.253
  H     -261.491     407.203    -212.919
  H     -260.836     406.598    -214.467
  P     -261.823     402.575    -215.147
  C     -262.109     401.012    -213.109
  O     -262.036     401.106    -214.525
  O     -260.558     403.235    -214.689
  O     -261.783     402.323    -216.730
  H     -260.852     402.321    -217.032
  H     -262.251     399.990    -212.826
  H     -262.932     401.597    -212.755
  H     -261.200     401.378    -212.680

 6  7  8  9  10  11  12  13  14  15  16  27  31  32  33  34  35 0
 6-311+G(2d,p)
 ****
 36  37 0
 6-311+G(2d,p)
 ****
 1  2  3  4  5  17  18  19  20  21  22  23  24  25 0
 3-21G
 ****
 26  28  29  30  38  39  40  41  42  43  44  45 0
 3-21G
 ****


