%nproc=1
%NoSave
%Mem=1900MB
#P OB98/GEN NMR

erre ene a

0 1
  C       78.091     261.153     -58.524
  O       79.498     260.922     -58.428
  P       80.370     261.315     -59.717
  C       80.702     263.633     -58.598
  O       80.442     262.916     -59.796
  C       81.893     264.576     -58.781
  O       83.117     263.870     -59.052
  C       81.713     265.558     -59.931
  O       80.882     266.632     -59.529
  C       83.150     265.981     -60.206
  O       83.563     267.039     -59.317
  C       83.941     264.696     -59.914
  N       86.378     264.843     -64.356
  C       86.060     265.868     -63.487
  N       86.471     267.104     -63.839
  N       85.399     265.696     -62.371
  C       85.053     264.406     -62.146
  C       85.335     263.303     -62.917
  C       86.064     263.508     -64.151
  O       86.388     262.630     -64.941
  N       84.873     262.150     -62.331
  C       84.205     262.577     -61.275
  N       84.338     263.929     -61.082
  O       79.423     260.908     -60.941
  O       81.685     260.613     -59.782
  H       84.534     267.028     -59.240
  H       79.794     260.132     -61.402
  H       86.880     265.034     -65.206
  H       83.635     261.948     -60.608
  H       84.866     264.910     -59.364
  H       83.273     266.366     -61.221
  H       86.985     267.309     -64.682
  H       81.299     265.042     -60.807
  H       86.254     267.868     -63.211
  H       82.021     265.128     -57.841
  H       80.907     262.936     -57.782
  H       79.802     264.189     -58.318
  P       79.574     266.937     -60.402
  C       77.465     266.662     -58.917
  O       78.381     266.055     -59.806
  O       79.907     266.241     -61.807
  O       79.273     268.388     -60.580
  H       79.652     266.837     -62.536
  H       76.497     266.166     -59.017
  H       77.343     267.727     -59.127
  H       77.824     266.535     -57.892
  H       77.618     260.855     -57.612
  H       77.691     260.583     -59.336
  H       77.911     262.194     -58.696

 3  4  5  6  7  8  9  10  11  12  23  26  30  31 0
 6-311+G(2d,p)
 ****
 33  35  36  37  38 0
 6-311+G(2d,p)
 ****
 1  2  13  14  15  16  17  18  19  20  21  22  24  25 0
 3-21G
 ****
 27  28  29  32  34  39  40  41  42  43  44  45  46  47  48  49 0
 3-21G
 ****


