%nproc=1
%NoSave
%Mem=1900MB
#P OB98/GEN NMR

erre ene a

0 1
  C     -891.420     -59.765    -660.474
  O     -891.930     -60.423    -659.319
  P     -891.330     -61.836    -658.845
  C     -891.730     -64.299    -659.529
  O     -891.990     -62.935    -659.814
  C     -892.600     -65.210    -660.423
  O     -893.980     -65.074    -660.021
  C     -892.530     -64.854    -661.933
  O     -892.620     -66.063    -662.650
  C     -893.750     -63.997    -662.138
  O     -894.160     -63.967    -663.496
  C     -894.740     -64.679    -661.186
  N     -895.850     -63.823    -660.811
  C     -897.140     -64.240    -661.164
  O     -897.320     -65.291    -661.801
  N     -898.210     -63.462    -660.821
  C     -898.020     -62.314    -660.218
  N     -899.120     -61.608    -659.829
  C     -896.670     -61.792    -659.914
  C     -895.660     -62.589    -660.220
  O     -891.480     -62.117    -657.377
  O     -889.800     -61.807    -659.340
  H     -894.310     -64.885    -663.803
  H     -889.200     -61.352    -658.715
  H     -896.560     -60.813    -659.450
  H     -894.630     -62.292    -660.018
  H     -895.120     -65.620    -661.633
  H     -893.550     -62.952    -661.822
  H     -891.570     -64.352    -662.196
  H     -892.290     -66.244    -660.263
  H     -900.000     -62.091    -659.893
  H     -892.000     -64.494    -658.480
  H     -899.060     -60.896    -659.092
  H     -890.670     -64.533    -659.642
  P     -891.600     -66.329    -663.888
  C     -891.250     -65.275    -666.245
  O     -892.090     -65.411    -665.107
  O     -892.040     -67.800    -664.369
  O     -890.150     -66.310    -663.572
  H     -891.280     -68.215    -664.812
  H     -891.740     -64.615    -666.973
  H     -891.060     -66.242    -666.710
  H     -890.280     -64.822    -665.942
  H     -891.946     -58.845    -660.622
  H     -891.552     -60.393    -661.330
  H     -890.378     -59.562    -660.338

 3  4  5  6  7  8  9  10  11  12  13  23  27  28  29  30  32 0
 6-311+G(2d,p)
 ****
 34  35 0
 6-311+G(2d,p)
 ****
 1  2  14  15  16  17  18  19  20  21  22  24  25  26 0
 3-21G
 ****
 31  33  36  37  38  39  40  41  42  43  44  45  46 0
 3-21G
 ****


