%nproc=1
%NoSave
%Mem=1900MB
#P OB98/GEN NMR

erre ene a

0 1
  C      144.190     240.951    -576.566
  O      144.471     241.732    -575.401
  P      143.653     243.098    -575.216
  C      142.266     242.199    -573.204
  O      142.255     242.766    -574.510
  C      140.836     241.881    -572.758
  O      140.123     241.149    -573.771
  C      140.779     241.000    -571.518
  O      141.036     241.762    -570.355
  C      139.365     240.442    -571.593
  O      138.426     241.288    -570.905
  C      139.074     240.424    -573.110
  N      138.950     239.069    -573.640
  C      137.773     238.393    -573.318
  O      136.919     238.931    -572.604
  N      137.604     237.121    -573.792
  C      138.532     236.562    -574.501
  N      138.312     235.292    -574.932
  C      139.804     237.235    -574.836
  C      139.945     238.481    -574.376
  O      143.232     243.483    -576.712
  O      144.444     244.192    -574.570
  H      138.679     242.206    -571.145
  H      143.205     244.450    -576.820
  H      140.557     236.728    -575.422
  H      140.848     239.047    -574.579
  H      138.138     240.958    -573.328
  H      139.302     239.453    -571.126
  H      141.507     240.181    -571.608
  H      140.312     242.829    -572.568
  H      137.427     234.861    -574.680
  H      142.731     242.886    -572.499
  H      138.972     234.765    -575.482
  H      142.884     241.294    -573.216
  P      142.506     241.685    -569.725
  C      142.669     244.234    -570.008
  O      143.266     242.981    -570.290
  O      143.180     240.512    -570.577
  O      142.610     241.441    -568.258
  H      144.059     240.296    -570.220
  H      143.381     245.023    -570.258
  H      142.419     244.314    -568.948
  H      141.774     244.362    -570.621
  H      144.802     240.073    -576.563
  H      144.400     241.529    -577.442
  H      143.158     240.667    -576.565

 3  4  5  6  7  8  9  10  11  12  13  21  23  27  28  29  30  32 0
 6-311+G(2d,p)
 ****
 34  35 0
 6-311+G(2d,p)
 ****
 1  2  14  15  16  17  18  19  20  22  24  25  26 0
 3-21G
 ****
 31  33  36  37  38  39  40  41  42  43  44  45  46 0
 3-21G
 ****


