%nproc=1
%NoSave
%Mem=1900MB
#P OB98/GEN NMR

erre ene a

0 1
  C     -796.914      13.576    -156.548
  O     -796.454      14.076    -157.793
  P     -796.799      15.603    -158.154
  C     -794.931      16.876    -156.868
  O     -796.302      16.500    -156.911
  C     -794.788      18.399    -156.868
  O     -795.249      18.915    -158.149
  C     -795.589      19.116    -155.771
  O     -794.814      20.251    -155.366
  C     -796.838      19.541    -156.523
  O     -797.590      20.551    -155.863
  C     -796.235      19.931    -157.857
  N     -800.232      22.556    -159.677
  C     -799.416      22.777    -158.627
  N     -798.368      22.040    -158.207
  C     -798.179      20.972    -159.009
  C     -798.941      20.613    -160.108
  C     -800.015      21.462    -160.441
  N     -800.850      21.222    -161.517
  N     -798.460      19.445    -160.668
  C     -797.433      19.106    -159.921
  N     -797.218      20.012    -158.918
  O     -798.389      15.659    -158.024
  O     -796.329      16.054    -159.501
  H     -797.102      21.399    -155.873
  H     -798.784      16.220    -158.716
  H     -799.633      23.661    -158.035
  H     -796.835      18.217    -160.048
  H     -795.713      20.902    -157.811
  H     -797.500      18.672    -156.632
  H     -795.783      18.485    -154.891
  H     -793.722      18.651    -156.779
  H     -794.416      16.488    -157.754
  H     -801.698      21.768    -161.551
  H     -800.805      20.310    -161.942
  H     -794.461      16.435    -155.984
  P     -794.987      20.816    -153.876
  C     -793.065      19.493    -152.806
  O     -794.466      19.615    -152.936
  O     -796.581      20.705    -153.686
  O     -794.432      22.171    -153.625
  H     -796.902      19.817    -153.921
  H     -792.851      18.703    -152.079
  H     -792.629      20.432    -152.452
  H     -792.619      19.206    -153.764
  H     -796.615      12.554    -156.441
  H     -797.981      13.641    -156.510
  H     -796.493      14.156    -155.753

 3  4  5  6  7  8  9  10  11  12  22  25  29  30  31  32 0
 6-311+G(2d,p)
 ****
 33  36  37 0
 6-311+G(2d,p)
 ****
 1  2  13  14  15  16  17  18  19  20  21  23  24  26 0
 3-21G
 ****
 27  28  34  35  38  39  40  41  42  43  44  45  46  47  48 0
 3-21G
 ****


