%nproc=1
%NoSave
%Mem=1900MB
#P OB98/GEN NMR

erre ene a

0 1
  C       96.480    -267.497      13.844
  O       97.475    -266.691      14.498
  P       97.747    -265.199      13.967
  C       96.228    -263.200      13.224
  O       96.366    -264.383      13.999
  C       94.961    -262.446      13.633
  O       93.796    -263.285      13.464
  C       94.931    -262.013      15.092
  O       95.744    -260.876      15.325
  C       93.443    -261.747      15.295
  O       93.087    -260.435      14.826
  C       92.801    -262.833      14.412
  N       92.262    -263.947      15.188
  C       91.026    -263.739      15.791
  O       90.424    -262.669      15.741
  N       90.517    -264.800      16.490
  C       91.141    -265.999      16.696
  O       90.640    -266.907      17.349
  C       92.480    -266.130      16.103
  C       92.973    -265.113      15.393
  O       97.952    -265.439      12.394
  O       98.932    -264.507      14.555
  H       93.548    -259.796      15.406
  H       98.534    -264.744      12.031
  H       89.609    -264.683      16.909
  H       93.018    -267.056      16.263
  H       93.961    -265.194      14.948
  H       91.991    -262.403      13.812
  H       93.149    -261.801      16.349
  H       95.236    -262.846      15.734
  H       94.854    -261.575      12.972
  H       96.161    -263.468      12.167
  H       97.115    -262.574      13.372
  P       97.080    -261.110      16.187
  C       99.511    -260.393      15.543
  O       98.285    -260.967      15.140
  O       96.975    -262.679      16.492
  O       97.153    -260.243      17.401
  H       96.554    -263.166      15.761
  H       99.737    -260.618      16.589
  H       99.465    -259.310      15.406
  H      100.311    -260.797      14.915
  H       96.427    -268.454      14.320
  H       96.744    -267.624      12.815
  H       95.528    -267.013      13.911

 3  4  5  6  7  8  9  10  11  12  13  23  28  29  30  31  32 0
 6-311+G(2d,p)
 ****
 33  34 0
 6-311+G(2d,p)
 ****
 1  2  14  15  16  17  18  19  20  21  22  24  25  26 0
 3-21G
 ****
 27  35  36  37  38  39  40  41  42  43  44  45 0
 3-21G
 ****


