%nproc=1
%NoSave
%Mem=1900MB
#P OB98/GEN NMR

erre ene a

0 1
  C     -515.291     172.584     325.686
  O     -515.631     171.271     325.292
  H     -514.642     173.016     324.923
  H     -514.753     172.558     326.636
  H     -516.184     173.208     325.784
  P     -516.824     170.520     326.050
  C     -515.633     168.436     325.090
  O     -516.866     169.017     325.488
  C     -515.729     167.871     323.669
  O     -516.786     166.873     323.629
  C     -516.103     168.959     322.658
  O     -515.606     168.666     321.350
  C     -517.619     168.885     322.629
  O     -518.187     169.414     321.427
  C     -517.854     167.386     322.816
  N     -522.246     164.806     322.486
  C     -521.273     165.004     321.531
  N     -521.502     164.425     320.315
  N     -520.192     165.710     321.721
  C     -520.136     166.279     322.950
  C     -521.040     166.180     323.980
  C     -522.217     165.370     323.757
  O     -523.125     165.178     324.570
  N     -520.646     166.907     325.074
  C     -519.499     167.451     324.706
  N     -519.136     167.080     323.440
  O     -518.144     171.164     325.414
  O     -516.816     170.642     327.545
  H     -519.158     169.431     321.545
  H     -518.900     171.056     326.018
  H     -523.046     164.229     322.293
  H     -518.892     168.098     325.325
  H     -517.824     166.866     321.853
  H     -518.009     169.487     323.456
  H     -522.402     164.050     320.072
  H     -515.766     169.946     322.955
  H     -520.970     164.814     319.530
  H     -514.797     167.352     323.403
  H     -515.407     167.644     325.810
  H     -514.826     169.176     325.158
  P     -514.564     169.692     320.684
  C     -514.689     170.264     318.104
  O     -514.379     169.349     319.132
  O     -513.162     169.285     321.331
  O     -514.888     171.139     320.909
  H     -512.815     170.016     321.882
  H     -514.485     169.816     317.154
  H     -514.092     171.144     318.218
  H     -515.725     170.526     318.160

 6  7  8  9  10  11  12  13  14  15  26  29  33  34 0
 6-311+G(2d,p)
 ****
 36  38  39  40  41 0
 6-311+G(2d,p)
 ****
 1  2  3  4  5  16  17  18  19  20  21  22  23  24  25 0
 3-21G
 ****
 27  28  30  31  32  35  37  42  43  44  45  46  47 0
 3-21G
 ****
 48  49 0
 3-21G
 ****


