%nproc=1
%NoSave
%Mem=1900MB
#P OB98/GEN NMR

erre ene a

0 1
  C      -28.434      86.355     108.932
  O      -29.391      86.552     107.906
  P      -29.421      87.993     107.194
  C      -29.924      90.416     108.008
  O      -30.059      89.019     108.246
  C      -30.707      91.205     109.053
  O      -32.124      91.032     108.848
  C      -30.451      90.777     110.493
  O      -29.201      91.261     110.956
  C      -31.666      91.389     111.185
  O      -31.460      92.795     111.393
  C      -32.775      91.166     110.140
  N      -37.461      89.374     111.168
  C      -36.993      90.632     110.999
  N      -35.728      91.029     110.750
  C      -34.905      89.971     110.671
  C      -35.233      88.637     110.842
  C      -36.582      88.347     111.098
  N      -37.055      87.064     111.274
  N      -34.118      87.836     110.711
  C      -33.134      88.673     110.454
  N      -33.560      89.972     110.404
  O      -30.566      87.830     106.092
  O      -28.119      88.423     106.591
  H      -32.277      93.152     111.797
  H      -30.359      88.351     105.292
  H      -37.734      91.424     111.072
  H      -32.102      88.388     110.292
  H      -33.468      92.011     110.076
  H      -31.877      90.939     112.161
  H      -30.482      89.685     110.579
  H      -30.468      92.269     108.923
  H      -30.317      90.656     107.015
  H      -38.004      86.956     111.600
  H      -36.379      86.316     111.362
  H      -28.862      90.678     108.031
  P      -28.406      90.348     112.011
  C      -28.846      89.689     114.455
  O      -29.266      90.487     113.361
  O      -27.123      91.252     112.318
  O      -28.130      88.956     111.555
  H      -27.366      92.173     112.516
  H      -29.477      89.918     115.316
  H      -27.806      89.911     114.708
  H      -28.953      88.629     114.209
  H      -28.523      85.360     109.317
  H      -28.606      87.059     109.720
  H      -27.451      86.497     108.535

 3  4  5  6  7  8  9  10  11  12  22  25  29  30  31  32 0
 6-311+G(2d,p)
 ****
 33  36  37 0
 6-311+G(2d,p)
 ****
 1  2  13  14  15  16  17  18  19  20  21  23  24  26 0
 3-21G
 ****
 27  28  34  35  38  39  40  41  42  43  44  45  46  47  48 0
 3-21G
 ****


