%nproc=1
%NoSave
%Mem=1900MB
#P OB98/GEN NMR

erre ene a

0 1
  C      370.882    -285.566     -80.885
  O      370.784    -286.114     -82.185
  H      370.078    -284.839     -80.750
  H      371.842    -285.061     -80.759
  H      370.775    -286.357     -80.138
  P      371.949    -287.129     -82.624
  C      369.927    -288.314     -83.769
  O      371.296    -287.945     -83.845
  C      369.566    -289.224     -84.937
  O      370.417    -290.393     -84.953
  C      368.140    -289.766     -84.903
  O      367.169    -288.821     -85.317
  C      368.271    -290.910     -85.891
  O      368.319    -290.389     -87.232
  C      369.633    -291.503     -85.473
  N      369.513    -292.564     -84.468
  C      369.172    -293.837     -84.937
  O      368.985    -294.036     -86.136
  N      369.016    -294.856     -84.028
  C      369.204    -294.631     -82.764
  N      369.032    -295.678     -81.912
  C      369.576    -293.309     -82.229
  C      369.713    -292.334     -83.122
  O      371.961    -288.211     -81.445
  O      373.277    -286.516     -82.916
  H      368.415    -291.156     -87.825
  H      372.547    -288.970     -81.691
  H      369.710    -293.167     -81.164
  H      369.987    -291.334     -82.804
  H      370.171    -291.906     -86.340
  H      367.438    -291.612     -85.853
  H      367.891    -290.176     -83.918
  H      369.758    -288.670     -85.864
  H      368.718    -296.556     -82.303
  H      369.323    -287.400     -83.802
  H      369.008    -295.569     -80.908
  H      369.730    -288.836     -82.828
  P      365.631    -289.156     -84.995
  C      364.911    -286.730     -85.603
  O      364.744    -288.122     -85.837
  O      365.456    -288.653     -83.488
  O      365.256    -290.597     -85.154
  H      364.827    -289.222     -83.002
  H      364.251    -286.179     -86.240
  H      365.923    -286.452     -85.812
  H      364.685    -286.511     -84.580

 6  7  8  9  10  11  12  13  14  15  16  26  30  31  32  33  35 0
 6-311+G(2d,p)
 ****
 37  38 0
 6-311+G(2d,p)
 ****
 1  2  3  4  5  17  18  19  20  21  22  23  24  25 0
 3-21G
 ****
 27  28  29  34  36  39  40  41  42  43  44  45  46 0
 3-21G
 ****


