%nproc=1
%NoSave
%Mem=1900MB
#P OB98/GEN NMR

erre ene a

0 1
  C      219.300     157.851    -287.506
  O      219.024     156.614    -286.836
  P      220.106     155.846    -285.937
  C      219.864     153.499    -286.980
  O      219.696     154.301    -285.816
  C      218.802     152.401    -287.068
  O      217.835     152.714    -288.092
  C      219.335     151.019    -287.425
  O      219.969     150.412    -286.311
  C      218.060     150.322    -287.891
  O      217.300     149.832    -286.774
  C      217.311     151.471    -288.599
  N      217.420     151.397    -290.051
  C      216.481     150.602    -290.709
  O      215.649     149.959    -290.063
  N      216.519     150.531    -292.079
  C      217.461     151.143    -292.727
  N      217.446     151.047    -294.085
  C      218.526     151.921    -292.066
  C      218.445     152.006    -290.740
  O      220.385     156.507    -284.625
  O      221.435     155.808    -286.833
  H      216.414     149.611    -287.119
  H      222.214     155.825    -286.246
  H      219.308     152.388    -292.642
  H      219.179     152.562    -290.177
  H      216.251     151.459    -288.325
  H      218.261     149.469    -288.543
  H      220.034     151.099    -288.269
  H      218.271     152.370    -286.107
  H      216.698     150.514    -294.510
  H      220.859     153.037    -286.938
  H      218.130     151.486    -294.685
  H      219.818     154.145    -287.864
  P      221.447     149.820    -286.465
  C      220.810     147.347    -286.190
  O      221.509     148.450    -285.640
  O      222.561     150.774    -286.196
  O      221.493     149.312    -287.988
  H      222.406     149.404    -288.323
  H      221.240     146.426    -285.793
  H      220.892     147.335    -287.283
  H      219.755     147.408    -285.903
  H      218.430     158.169    -288.041
  H      220.109     157.712    -288.192
  H      219.567     158.595    -286.785

 3  4  5  6  7  8  9  10  11  12  13  23  27  28  29  30  32 0
 6-311+G(2d,p)
 ****
 34  35 0
 6-311+G(2d,p)
 ****
 1  2  14  15  16  17  18  19  20  21  22  24  25  26 0
 3-21G
 ****
 31  33  36  37  38  39  40  41  42  43  44  45  46 0
 3-21G
 ****


