%nproc=1
%NoSave
%Mem=1900MB
#P OB98/GEN NMR

erre ene a

0 1
  C      375.301    -321.785      29.200
  O      374.693    -321.881      30.474
  H      375.198    -322.744      28.687
  H      376.363    -321.559      29.314
  H      374.814    -321.009      28.600
  P      374.515    -320.527      31.308
  C      372.080    -320.020      30.537
  O      373.447    -319.630      30.508
  C      371.216    -318.852      31.014
  O      371.321    -317.771      30.041
  C      369.726    -319.197      31.162
  O      369.202    -318.479      32.287
  C      369.116    -318.642      29.882
  O      367.726    -318.365      29.985
  C      369.973    -317.392      29.681
  N      369.920    -316.890      28.307
  C      368.845    -316.074      27.964
  O      367.988    -315.678      28.748
  N      368.777    -315.713      26.643
  C      369.637    -316.096      25.654
  O      369.509    -315.755      24.483
  C      370.748    -316.965      26.080
  C      370.837    -317.321      27.362
  O      375.900    -319.764      31.059
  O      374.210    -320.700      32.759
  H      376.552    -320.010      31.740
  H      367.584    -317.881      30.824
  H      368.007    -315.126      26.380
  H      371.445    -317.297      25.319
  H      371.623    -317.977      27.705
  H      369.662    -316.599      30.366
  H      369.258    -319.350      29.067
  H      369.524    -320.270      31.280
  H      371.624    -318.471      31.957
  H      371.961    -320.858      31.232
  H      371.773    -320.341      29.535
  P      368.852    -319.323      33.603
  C      371.100    -319.075      34.927
  O      370.252    -319.894      34.135
  O      368.117    -320.595      32.969
  O      368.045    -318.553      34.592
  H      368.494    -320.859      32.116
  H      371.982    -319.622      35.187
  H      370.584    -318.785      35.819
  H      371.372    -318.202      34.372

 6  7  8  9  10  11  12  13  14  15  16  27  31  32  33  34  35 0
 6-311+G(2d,p)
 ****
 36  37 0
 6-311+G(2d,p)
 ****
 1  2  3  4  5  17  18  19  20  21  22  23  24  25 0
 3-21G
 ****
 26  28  29  30  38  39  40  41  42  43  44  45 0
 3-21G
 ****


