%nproc=1
%NoSave
%Mem=1900MB
#P OB98/GEN NMR

erre ene a

0 1
  C      -84.609     -87.972     105.719
  O      -83.514     -87.711     104.859
  P      -83.816     -86.848     103.536
  C      -83.021     -84.637     104.674
  O      -84.066     -85.346     104.028
  C      -82.610     -83.436     103.821
  O      -83.617     -82.406     103.886
  C      -81.304     -82.781     104.251
  O      -80.197     -83.496     103.734
  C      -81.460     -81.381     103.670
  O      -81.128     -81.367     102.268
  C      -82.956     -81.111     103.884
  N      -82.960     -76.584     106.130
  C      -82.421     -76.974     104.919
  N      -81.838     -76.005     104.181
  N      -82.454     -78.201     104.470
  C      -83.057     -79.065     105.320
  C      -83.614     -78.803     106.549
  C      -83.617     -77.434     107.008
  O      -84.166     -77.020     108.026
  N      -84.112     -79.941     107.128
  C      -83.883     -80.882     106.235
  N      -83.264     -80.400     105.111
  O      -85.262     -87.362     103.092
  O      -82.799     -86.978     102.446
  H      -81.305     -80.481     101.906
  H      -85.190     -88.027     102.380
  H      -82.920     -75.621     106.414
  H      -84.164     -81.918     106.345
  H      -83.391     -80.530     103.062
  H      -80.799     -80.657     104.154
  H      -81.754     -75.044     104.472
  H      -81.249     -82.722     105.345
  H      -81.433     -76.273     103.292
  H      -82.545     -83.772     102.779
  H      -82.162     -85.300     104.800
  H      -83.366     -84.311     105.661
  P      -78.829     -83.448     104.571
  C      -79.116     -85.799     105.632
  O      -79.016     -84.404     105.840
  O      -78.831     -81.973     105.195
  O      -77.600     -83.693     103.761
  H      -77.919     -81.629     105.222
  H      -78.718     -86.314     106.509
  H      -78.557     -86.118     104.748
  H      -80.167     -86.069     105.508
  H      -84.276     -88.551     106.555
  H      -85.360     -88.516     105.185
  H      -85.018     -87.046     106.066

 3  4  5  6  7  8  9  10  11  12  23  26  30  31 0
 6-311+G(2d,p)
 ****
 33  35  36  37  38 0
 6-311+G(2d,p)
 ****
 1  2  13  14  15  16  17  18  19  20  21  22  24  25 0
 3-21G
 ****
 27  28  29  32  34  39  40  41  42  43  44  45  46  47  48  49 0
 3-21G
 ****


