%nproc=1
%NoSave
%Mem=1900MB
#P OB98/GEN NMR

erre ene a

0 1
  C       -8.123    -425.557    -425.568
  O       -8.024    -426.142    -424.284
  H       -7.131    -425.465    -426.019
  H       -8.737    -426.203    -426.203
  H       -8.597    -424.574    -425.502
  P       -7.164    -425.343    -423.189
  C       -4.774    -424.327    -423.139
  O       -5.726    -425.103    -423.854
  C       -3.366    -424.826    -423.448
  O       -3.052    -424.600    -424.842
  C       -2.264    -424.129    -422.656
  O       -2.125    -424.656    -421.352
  C       -1.054    -424.459    -423.513
  O       -0.647    -425.818    -423.277
  C       -1.630    -424.315    -424.932
  N        1.545    -421.288    -427.575
  C        1.661    -422.564    -427.144
  N        0.772    -423.295    -426.446
  C       -0.333    -422.582    -426.186
  C       -0.592    -421.269    -426.550
  C        0.404    -420.611    -427.286
  N        0.297    -419.306    -427.709
  N       -1.827    -420.863    -426.073
  C       -2.315    -421.927    -425.465
  N       -1.446    -422.985    -425.496
  O       -6.866    -426.446    -422.067
  O       -7.806    -424.118    -422.631
  H        0.156    -425.968    -423.816
  H       -6.642    -426.011    -421.224
  H        2.591    -423.059    -427.400
  H       -3.283    -421.978    -424.987
  H       -1.190    -425.031    -425.636
  H       -0.194    -423.823    -423.303
  H       -2.409    -423.041    -422.640
  H       -3.342    -425.910    -423.272
  H       -4.965    -424.423    -422.067
  H        1.135    -418.873    -428.066
  H       -0.480    -418.757    -427.371
  H       -4.876    -423.278    -423.428
  P       -1.784    -423.623    -420.168
  C        0.105    -421.878    -419.785
  O       -0.361    -422.988    -420.546
  O       -1.455    -424.580    -418.931
  O       -2.869    -422.646    -419.858
  H       -1.631    -424.131    -418.086
  H        1.061    -421.569    -420.154
  H        0.194    -422.162    -418.757
  H       -0.590    -421.069    -419.872

 6  7  8  9  10  11  12  13  14  15  25  28  32  33  34  35 0
 6-311+G(2d,p)
 ****
 36  39  40 0
 6-311+G(2d,p)
 ****
 1  2  3  4  5  16  17  18  19  20  21  22  23  24 0
 3-21G
 ****
 26  27  29  30  31  37  38  41  42  43  44  45  46  47 0
 3-21G
 ****
 48 0
 3-21G
 ****


