%nproc=1
%NoSave
%Mem=1900MB
#P OB98/GEN NMR

erre ene a

0 1
  C       75.120    -178.418     -82.730
  O       74.179    -179.100     -83.535
  H       76.074    -178.953     -82.772
  H       74.776    -178.390     -81.692
  H       75.268    -177.400     -83.101
  P       72.691    -178.499     -83.556
  C       71.998    -180.500     -82.061
  O       71.708    -179.720     -83.213
  C       70.784    -181.341     -81.667
  O       71.155    -182.348     -80.699
  C       69.636    -180.543     -81.053
  O       68.823    -179.967     -82.059
  C       68.918    -181.625     -80.262
  O       68.074    -182.424     -81.123
  C       70.085    -182.461     -79.723
  N       68.938    -182.189     -74.810
  C       68.170    -182.590     -75.883
  N       66.891    -182.942     -75.617
  N       68.605    -182.629     -77.117
  C       69.881    -182.192     -77.244
  C       70.745    -181.771     -76.258
  C       70.267    -181.785     -74.892
  O       70.924    -181.524     -73.890
  N       71.963    -181.421     -76.783
  C       71.825    -181.602     -78.084
  N       70.575    -182.061     -78.413
  O       72.415    -178.234     -85.114
  O       72.490    -177.257     -82.756
  H       67.519    -183.005     -80.574
  H       71.902    -177.410     -85.204
  H       68.559    -182.210     -73.878
  H       72.596    -181.426     -78.822
  H       69.830    -183.524     -79.646
  H       68.261    -181.198     -79.502
  H       66.422    -182.663     -74.766
  H       70.015    -179.778     -80.361
  H       66.307    -183.163     -76.415
  H       70.446    -181.870     -82.568
  H       72.258    -179.828     -81.234
  H       72.848    -181.155     -82.273
  P       68.393    -178.432     -81.901
  C       65.863    -178.949     -81.632
  O       66.871    -178.293     -82.392
  O       69.227    -177.705     -83.061
  O       68.696    -177.835     -80.570
  H       69.974    -177.212     -82.673
  H       64.907    -178.768     -82.076
  H       65.868    -178.571     -80.631
  H       66.056    -180.001     -81.617

 6  7  8  9  10  11  12  13  14  15  26  29  33  34 0
 6-311+G(2d,p)
 ****
 36  38  39  40  41 0
 6-311+G(2d,p)
 ****
 1  2  3  4  5  16  17  18  19  20  21  22  23  24  25 0
 3-21G
 ****
 27  28  30  31  32  35  37  42  43  44  45  46  47 0
 3-21G
 ****
 48  49 0
 3-21G
 ****


