%nproc=1
%NoSave
%Mem=1900MB
#P OB98/GEN NMR

erre ene a

0 1
  C      742.128     643.675     229.908
  O      741.523     642.519     230.456
  P      741.531     641.188     229.567
  C      739.648     640.098     231.034
  O      740.082     640.505     229.738
  C      738.130     640.134     231.111
  O      737.669     641.500     231.084
  C      737.404     639.432     229.977
  O      737.449     638.009     230.123
  C      736.013     640.039     230.104
  O      735.294     639.408     231.162
  C      736.337     641.490     230.488
  N      733.518     643.308     226.600
  C      733.258     642.388     227.546
  N      734.054     641.940     228.546
  C      735.252     642.569     228.477
  C      735.675     643.491     227.548
  C      734.750     643.886     226.588
  N      735.017     644.829     225.599
  N      736.969     643.896     227.805
  C      737.338     643.207     228.872
  N      736.323     642.388     229.330
  O      742.492     640.193     230.412
  O      742.012     641.349     228.156
  H      734.402     639.815     231.178
  H      743.009     639.615     229.818
  H      732.242     641.949     227.535
  H      738.298     643.258     229.368
  H      735.640     641.908     231.220
  H      735.421     639.939     229.188
  H      737.858     639.728     228.999
  H      737.829     639.701     232.088
  H      740.078     640.773     231.776
  H      734.356     644.921     224.859
  H      735.974     645.158     225.522
  H      740.040     639.096     231.223
  P      737.696     637.131     228.804
  C      737.072     635.099     230.250
  O      736.811     635.823     229.058
  O      739.187     636.596     229.038
  O      737.455     637.855     227.509
  H      739.307     636.234     229.940
  H      736.364     634.261     230.337
  H      736.939     635.752     231.135
  H      738.076     634.700     230.235
  H      742.050     644.483     230.605
  H      741.632     643.940     228.998
  H      743.160     643.476     229.706

 3  4  5  6  7  8  9  10  11  12  22  25  29  30  31  32 0
 6-311+G(2d,p)
 ****
 33  36  37 0
 6-311+G(2d,p)
 ****
 1  2  13  14  15  16  17  18  19  20  21  23  24  26 0
 3-21G
 ****
 27  28  34  35  38  39  40  41  42  43  44  45  46  47  48 0
 3-21G
 ****


