%nproc=1
%NoSave
%Mem=1900MB
#P OB98/GEN NMR

erre ene a

0 1
  C      -95.144      85.780    -155.248
  O      -95.361      84.918    -154.149
  P      -94.118      84.401    -153.280
  C      -92.219      82.677    -153.511
  O      -93.385      83.243    -154.115
  C      -92.073      81.208    -153.914
  O      -93.165      80.429    -153.375
  C      -92.109      80.974    -155.420
  O      -90.875      81.329    -156.015
  C      -92.435      79.485    -155.475
  O      -91.245      78.699    -155.281
  C      -93.388      79.322    -154.277
  N      -97.740      76.690    -153.821
  C      -96.472      76.406    -153.445
  N      -95.355      77.149    -153.642
  C      -95.647      78.273    -154.314
  C      -96.886      78.679    -154.788
  C      -97.981      77.840    -154.495
  N      -99.286      78.152    -154.812
  N      -96.776      79.888    -155.457
  C      -95.490      80.190    -155.395
  N      -94.784      79.280    -154.659
  O      -94.432      84.052    -151.858
  O      -93.074      85.613    -153.345
  H      -90.743      78.717    -156.116
  H      -92.901      85.946    -152.443
  H      -96.335      75.465    -152.920
  H      -95.033      81.058    -155.851
  H      -93.177      78.404    -153.709
  H      -92.872      79.181    -156.433
  H      -92.939      81.537    -155.870
  H      -91.134      80.827    -153.482
  H      -92.320      82.758    -152.426
  H     -100.005      77.554    -154.429
  H      -99.514      79.119    -155.034
  H      -91.338      83.247    -153.825
  P      -90.845      81.840    -157.536
  C      -91.150      80.789    -159.857
  O      -91.211      80.583    -158.457
  O      -89.621      82.598    -157.937
  O      -92.157      82.755    -157.652
  H      -92.000      83.479    -158.291
  H      -92.044      81.331    -160.186
  H      -91.119      79.817    -160.358
  H      -90.258      81.363    -160.133
  H      -96.082      86.019    -155.705
  H      -94.512      85.295    -155.963
  H      -94.674      86.679    -154.909

 3  4  5  6  7  8  9  10  11  12  22  25  29  30  31  32 0
 6-311+G(2d,p)
 ****
 33  36  37 0
 6-311+G(2d,p)
 ****
 1  2  13  14  15  16  17  18  19  20  21  23  24  26 0
 3-21G
 ****
 27  28  34  35  38  39  40  41  42  43  44  45  46  47  48 0
 3-21G
 ****


