%nproc=1
%NoSave
%Mem=1900MB
#P OB98/GEN NMR

erre ene a

0 1
  C      454.774    -215.640    -394.888
  O      456.133    -216.002    -394.734
  H      454.500    -215.631    -395.946
  H      454.161    -216.380    -394.367
  H      454.589    -214.655    -394.446
  P      457.207    -215.097    -395.517
  C      456.859    -216.317    -397.775
  O      457.754    -215.990    -396.728
  C      457.500    -216.019    -399.139
  O      457.656    -214.603    -399.315
  C      458.899    -216.602    -399.315
  O      458.851    -218.009    -399.621
  C      459.394    -215.786    -400.495
  O      458.872    -216.337    -401.729
  C      458.785    -214.409    -400.218
  N      462.544    -211.016    -401.105
  C      461.813    -211.798    -401.950
  N      460.845    -212.681    -401.636
  C      460.626    -212.713    -400.315
  C      461.283    -211.983    -399.347
  C      462.292    -211.096    -399.786
  N      463.054    -210.315    -398.936
  N      460.784    -212.254    -398.092
  C      459.840    -213.152    -398.295
  N      459.705    -213.462    -399.619
  O      458.440    -215.025    -394.508
  O      456.725    -213.737    -395.891
  H      458.832    -217.298    -401.612
  H      458.857    -214.138    -394.574
  H      462.047    -211.706    -402.998
  H      459.219    -213.585    -397.515
  H      458.367    -213.961    -401.137
  H      460.479    -215.778    -400.595
  H      459.544    -216.414    -398.422
  H      456.815    -216.385    -399.917
  H      455.942    -215.720    -397.675
  H      463.606    -209.570    -399.316
  H      462.841    -210.366    -397.939
  H      456.590    -217.379    -397.703
  P      459.656    -219.007    -398.653
  C      461.960    -218.208    -399.542
  O      461.063    -219.295    -399.393
  O      458.846    -220.368    -398.815
  O      459.752    -218.579    -397.222
  H      458.979    -220.938    -398.009
  H      462.844    -218.541    -400.045
  H      462.222    -217.827    -398.577
  H      461.492    -217.436    -400.116

 6  7  8  9  10  11  12  13  14  15  25  28  32  33  34  35 0
 6-311+G(2d,p)
 ****
 36  39  40 0
 6-311+G(2d,p)
 ****
 1  2  3  4  5  16  17  18  19  20  21  22  23  24 0
 3-21G
 ****
 26  27  29  30  31  37  38  41  42  43  44  45  46  47  48 0
 3-21G
 ****


