%nproc=1
%NoSave
%Mem=1900MB
#P OB98/GEN NMR

erre ene a

0 1
  C      539.593     210.109     502.996
  O      538.603     210.964     502.444
  P      537.254     210.364     501.832
  C      535.446     211.456     503.393
  O      536.069     211.390     502.129
  C      535.201     212.929     503.756
  O      536.458     213.634     503.811
  C      534.315     213.622     502.721
  O      532.956     213.593     503.134
  C      534.906     215.016     502.667
  O      534.416     215.822     503.753
  C      536.414     214.727     502.850
  N      537.197     214.319     501.667
  C      537.395     215.225     500.626
  O      536.988     216.382     500.643
  N      538.085     214.744     499.542
  C      538.611     213.486     499.420
  O      539.004     213.000     498.368
  C      538.598     212.680     500.643
  C      537.892     213.117     501.684
  O      536.931     209.136     502.801
  O      537.329     209.944     500.399
  H      534.932     216.649     503.750
  H      537.230     208.292     502.404
  H      538.111     215.353     498.726
  H      539.131     211.733     500.640
  H      537.836     212.513     502.592
  H      536.933     215.586     503.300
  H      534.608     215.529     501.749
  H      534.436     213.148     501.739
  H      534.741     212.975     504.751
  H      536.076     210.972     504.146
  H      534.491     210.911     503.372
  P      531.820     213.207     502.075
  C      532.373     210.812     502.826
  O      531.343     211.735     502.498
  O      532.193     213.379     500.635
  O      530.595     214.149     502.495
  H      530.575     214.943     501.918
  H      531.916     209.925     503.265
  H      533.063     211.257     503.549
  H      532.914     210.534     501.920
  H      540.414     210.696     503.351
  H      539.938     209.431     502.244
  H      539.173     209.555     503.809

 3  4  5  6  7  8  9  10  11  12  13  23  28  29  30  31  32 0
 6-311+G(2d,p)
 ****
 33  34 0
 6-311+G(2d,p)
 ****
 1  2  14  15  16  17  18  19  20  21  22  24  25  26  27 0
 3-21G
 ****
 35  36  37  38  39  40  41  42  43  44  45 0
 3-21G
 ****


