%nproc=1
%NoSave
%Mem=1900MB
#P OB98/GEN NMR

erre ene a

0 1
  C     -141.370     -41.130     -13.848
  O     -140.629     -41.048     -15.049
  H     -141.375     -42.169     -13.509
  H     -142.402     -40.810     -14.019
  H     -140.909     -40.508     -13.076
  P     -140.524     -39.597     -15.726
  C     -138.654     -40.463     -17.301
  O     -139.922     -39.833     -17.196
  C     -138.663     -41.494     -18.426
  O     -139.463     -42.641     -18.061
  C     -139.219     -40.979     -19.748
  O     -138.231     -40.271     -20.478
  C     -139.631     -42.279     -20.423
  O     -138.502     -42.940     -21.031
  C     -140.172     -43.097     -19.243
  N     -144.697     -43.986     -21.297
  C     -143.434     -44.304     -21.752
  N     -143.366     -44.903     -22.962
  N     -142.338     -44.051     -21.090
  C     -142.559     -43.420     -19.912
  C     -143.761     -43.067     -19.345
  C     -144.969     -43.383     -20.076
  O     -146.121     -43.186     -19.698
  N     -143.578     -42.460     -18.129
  C     -142.268     -42.412     -17.980
  N     -141.606     -42.967     -19.044
  O     -139.310     -38.905     -14.942
  O     -141.762     -38.769     -15.662
  H     -138.820     -43.681     -21.574
  H     -139.461     -37.942     -14.906
  H     -145.505     -44.224     -21.846
  H     -141.756     -41.988     -17.128
  H     -139.964     -44.168     -19.353
  H     -140.356     -42.108     -21.220
  H     -144.112     -44.816     -23.639
  H     -140.108     -40.358     -19.580
  H     -142.442     -45.119     -23.313
  H     -137.632     -41.848     -18.555
  H     -138.427     -40.965     -16.355
  H     -137.890     -39.703     -17.494
  P     -138.636     -38.842     -21.089
  C     -136.326     -37.717     -20.684
  O     -137.279     -38.182     -21.631
  O     -138.976     -37.969     -19.792
  O     -139.769     -38.878     -22.057
  H     -139.491     -37.179     -20.047
  H     -135.482     -37.307     -21.199
  H     -136.007     -38.533     -20.069
  H     -136.772     -36.962     -20.071

 6  7  8  9  10  11  12  13  14  15  26  29  33  34 0
 6-311+G(2d,p)
 ****
 36  38  39  40  41 0
 6-311+G(2d,p)
 ****
 1  2  3  4  5  16  17  18  19  20  21  22  23  24  25 0
 3-21G
 ****
 27  28  30  31  32  35  37  42  43  44  45  46  47 0
 3-21G
 ****
 48  49 0
 3-21G
 ****


