%nproc=1
%NoSave
%Mem=1900MB
#P OB98/GEN NMR

erre ene a

0 1
  C     -414.711     289.635    -151.979
  O     -414.320     290.853    -152.596
  P     -413.756     290.863    -154.102
  C     -411.465     291.581    -155.021
  O     -412.152     290.877    -153.986
  C     -410.469     292.578    -154.421
  O     -411.181     293.465    -153.520
  C     -409.352     291.906    -153.612
  O     -408.146     292.654    -153.806
  C     -409.792     292.072    -152.167
  O     -408.662     292.062    -151.278
  C     -410.560     293.389    -152.223
  N     -411.583     294.491    -147.311
  C     -410.437     294.529    -148.023
  N     -410.230     294.200    -149.313
  C     -411.386     293.843    -149.897
  C     -412.637     293.766    -149.309
  C     -412.715     294.105    -147.948
  N     -413.890     294.079    -147.226
  N     -413.578     293.343    -150.223
  C     -412.916     293.182    -151.347
  N     -411.587     293.489    -151.204
  O     -414.329     291.924    -154.977
  O     -414.067     289.401    -154.654
  H     -409.005     292.227    -150.372
  H     -414.340     289.439    -155.598
  H     -409.560     294.862    -147.471
  H     -413.341     292.853    -152.281
  H     -409.889     294.254    -152.123
  H     -410.444     291.234    -151.884
  H     -409.193     290.853    -153.887
  H     -410.052     293.185    -155.230
  H     -412.200     292.122    -155.621
  H     -413.876     294.456    -146.299
  H     -414.762     293.953    -147.739
  H     -410.949     290.862    -155.672
  P     -406.824     291.765    -154.084
  C     -405.679     289.831    -152.753
  O     -406.809     290.682    -152.901
  O     -405.608     292.620    -154.249
  O     -407.258     290.953    -155.389
  H     -408.237     290.874    -155.460
  H     -405.879     289.144    -151.923
  H     -404.781     290.419    -152.525
  H     -405.515     289.256    -153.670
  H     -415.056     289.833    -150.986
  H     -413.874     288.970    -151.940
  H     -415.498     289.184    -152.547

 3  4  5  6  7  8  9  10  11  12  22  25  29  30  31  32 0
 6-311+G(2d,p)
 ****
 33  36  37 0
 6-311+G(2d,p)
 ****
 1  2  13  14  15  16  17  18  19  20  21  23  24  26 0
 3-21G
 ****
 27  28  34  35  38  39  40  41  42  43  44  45  46  47  48 0
 3-21G
 ****


