%nproc=1
%NoSave
%Mem=1900MB
#P OB98/GEN NMR

erre ene a

0 1
  C       -5.560       7.114      14.440
  O       -4.624       7.387      15.459
  H       -6.444       6.656      14.893
  H       -5.128       6.412      13.722
  H       -5.865       8.027      13.922
  P       -3.452       8.436      15.167
  C       -3.315      10.951      14.608
  O       -4.129       9.786      14.620
  C       -3.936      12.073      13.776
  O       -4.021      11.678      12.389
  C       -5.366      12.395      14.212
  O       -5.479      13.289      15.304
  C       -5.947      13.008      12.941
  O       -5.649      14.412      12.866
  C       -5.220      12.244      11.833
  N       -8.642      10.964       8.263
  C       -8.124      12.209       8.564
  N       -8.626      13.249       7.863
  N       -7.214      12.408       9.480
  C       -6.878      11.289      10.164
  C       -7.333      10.005       9.966
  C       -8.301       9.786       8.911
  O       -8.797       8.706       8.609
  N       -6.761       9.126      10.854
  C       -6.021       9.888      11.633
  N       -6.039      11.205      11.238
  O       -2.742       7.850      13.854
  O       -2.464       8.619      16.278
  H       -4.685      14.525      12.950
  H       -1.812       8.139      13.822
  H       -9.320      10.866       7.529
  H       -5.435       9.536      12.475
  H       -4.910      12.914      11.021
  H       -7.037      12.915      12.910
  H       -9.407      13.160       7.233
  H       -5.914      11.474      14.431
  H       -8.472      14.190       8.231
  H       -3.290      12.957      13.823
  H       -2.353      10.658      14.181
  H       -3.125      11.291      15.629
  P       -6.793      13.272      16.219
  C       -7.818      11.519      17.846
  O       -6.985      11.768      16.734
  O       -7.970      13.464      15.153
  O       -6.831      14.315      17.282
  H       -8.232      14.402      15.106
  H       -7.833      10.469      18.053
  H       -8.811      11.854      17.630
  H       -7.442      12.045      18.698

 6  7  8  9  10  11  12  13  14  15  26  29  33  34 0
 6-311+G(2d,p)
 ****
 36  38  39  40  41 0
 6-311+G(2d,p)
 ****
 1  2  3  4  5  16  17  18  19  20  21  22  23  24  25 0
 3-21G
 ****
 27  28  30  31  32  35  37  42  43  44  45  46  47 0
 3-21G
 ****
 48  49 0
 3-21G
 ****


