%nproc=1
%NoSave
%Mem=1900MB
#P OB98/GEN NMR

erre ene a

0 1
  C      137.385      16.401      54.897
  O      136.998      15.275      55.656
  H      136.663      16.541      54.088
  H      138.375      16.251      54.458
  H      137.386      17.298      55.521
  P      137.966      14.786      56.840
  C      136.134      15.319      58.593
  O      137.447      15.593      58.132
  C      135.917      15.942      59.970
  O      134.513      16.000      60.297
  C      136.554      15.178      61.126
  O      137.962      15.325      61.193
  C      135.844      15.835      62.299
  O      136.412      17.134      62.538
  C      134.401      15.954      61.748
  N      133.540      14.848      62.160
  C      133.067      14.879      63.478
  O      133.375      15.801      64.232
  N      132.283      13.842      63.925
  C      132.014      12.852      63.133
  N      131.273      11.827      63.640
  C      132.475      12.787      61.734
  C      133.230      13.802      61.318
  O      139.434      14.879      56.576
  O      137.471      13.300      57.170
  H      135.849      17.575      63.200
  H      138.048      12.947      57.891
  H      132.228      11.935      61.118
  H      133.622      13.818      60.308
  H      133.942      16.897      62.065
  H      135.929      15.266      63.228
  H      136.272      14.120      61.096
  H      136.279      16.978      59.924
  H      131.010      11.886      64.615
  H      136.004      14.233      58.628
  H      131.258      10.917      63.193
  H      135.397      15.742      57.903
  P      138.765      14.407      62.239
  C      138.715      12.315      60.686
  O      138.350      12.888      61.931
  O      138.035      14.726      63.624
  O      140.242      14.636      62.301
  H      138.498      15.435      64.112
  H      138.365      11.305      60.642
  H      139.780      12.328      60.586
  H      138.275      12.880      59.891

 6  7  8  9  10  11  12  13  14  15  16  26  30  31  32  33  35 0
 6-311+G(2d,p)
 ****
 37  38 0
 6-311+G(2d,p)
 ****
 1  2  3  4  5  17  18  19  20  21  22  23  24  25 0
 3-21G
 ****
 27  28  29  34  36  39  40  41  42  43  44  45  46 0
 3-21G
 ****


