%nproc=1
%NoSave
%Mem=1900MB
#P OB98/GEN NMR

erre ene a

0 1
  C     -156.340     -48.301     -53.812
  O     -156.490     -49.604     -53.291
  H     -157.286     -47.995     -54.272
  H     -155.559     -48.287     -54.580
  H     -156.095     -47.591     -53.018
  P     -155.287     -50.243     -52.443
  C     -153.209     -51.618     -53.101
  O     -154.119     -50.591     -53.484
  C     -152.273     -51.942     -54.266
  O     -151.446     -50.797     -54.576
  C     -151.308     -53.089     -53.984
  O     -151.969     -54.335     -54.046
  C     -150.263     -52.850     -55.061
  O     -150.714     -53.347     -56.335
  C     -150.187     -51.304     -55.079
  N     -149.062     -50.786     -54.299
  C     -147.790     -51.058     -54.797
  O     -147.594     -51.704     -55.828
  N     -146.742     -50.606     -54.037
  C     -146.842     -50.000     -52.816
  O     -145.879     -49.812     -52.077
  C     -148.207     -49.666     -52.381
  C     -149.237     -50.084     -53.121
  O     -155.662     -51.352     -51.516
  O     -154.688     -48.986     -51.641
  H     -155.016     -49.006     -50.719
  H     -151.647     -53.065     -56.424
  H     -145.816     -50.843     -54.364
  H     -148.327     -49.129     -51.446
  H     -150.254     -49.872     -52.804
  H     -150.086     -50.938     -56.108
  H     -149.317     -53.347     -54.845
  H     -150.838     -52.952     -52.998
  H     -152.891     -52.163     -55.147
  H     -153.783     -52.514     -52.836
  H     -152.640     -51.289     -52.227
  P     -151.361     -55.645     -53.350
  C     -149.504     -57.351     -53.799
  O     -150.225     -56.238     -54.315
  O     -152.370     -56.643     -52.886
  O     -150.517     -55.063     -52.111
  H     -150.801     -55.520     -51.295
  H     -148.775     -57.667     -54.516
  H     -150.182     -58.155     -53.601
  H     -149.012     -57.068     -52.892

 6  7  8  9  10  11  12  13  14  15  16  27  31  32  33  34  35 0
 6-311+G(2d,p)
 ****
 36  37 0
 6-311+G(2d,p)
 ****
 1  2  3  4  5  17  18  19  20  21  22  23  24  25 0
 3-21G
 ****
 26  28  29  30  38  39  40  41  42  43  44  45 0
 3-21G
 ****


