%nproc=1
%NoSave
%Mem=1900MB
#P OB98/GEN NMR

erre ene a

0 1
  C     -176.956    -277.181    -324.641
  O     -176.865    -278.595    -324.624
  P     -177.609    -279.392    -323.450
  C     -177.798    -281.407    -325.134
  O     -177.510    -280.956    -323.824
  C     -176.959    -282.638    -325.468
  O     -175.600    -282.212    -325.802
  C     -176.841    -283.666    -324.330
  O     -176.811    -284.967    -324.932
  C     -175.503    -283.326    -323.701
  O     -174.952    -284.409    -322.974
  C     -174.693    -282.937    -324.951
  N     -173.513    -282.124    -324.648
  C     -172.505    -282.709    -323.886
  O     -172.557    -283.846    -323.436
  N     -171.418    -281.907    -323.630
  C     -171.279    -280.598    -323.990
  O     -170.294    -279.919    -323.716
  C     -172.397    -280.024    -324.756
  C     -173.438    -280.807    -325.052
  O     -179.136    -279.024    -323.734
  O     -177.122    -279.049    -322.079
  H     -179.335    -278.944    -324.681
  H     -175.374    -284.430    -322.093
  H     -170.657    -282.320    -323.110
  H     -172.333    -278.984    -325.049
  H     -174.277    -280.402    -325.615
  H     -174.388    -283.837    -325.499
  H     -175.616    -282.473    -323.022
  H     -177.680    -283.598    -323.626
  H     -177.376    -283.109    -326.366
  H     -177.572    -280.605    -325.851
  H     -178.866    -281.629    -325.210
  P     -177.441    -286.201    -324.109
  C     -178.867    -287.110    -326.103
  O     -177.836    -287.329    -325.176
  O     -178.865    -285.575    -323.704
  O     -176.645    -286.639    -322.925
  H     -179.324    -285.160    -324.457
  H     -178.760    -287.821    -326.932
  H     -178.833    -286.092    -326.519
  H     -179.837    -287.269    -325.633
  H     -176.411    -276.799    -325.479
  H     -176.542    -276.786    -323.737
  H     -177.983    -276.891    -324.720

 3  4  5  6  7  8  9  10  11  12  13  24  28  29  30  31  32 0
 6-311+G(2d,p)
 ****
 33  34 0
 6-311+G(2d,p)
 ****
 1  2  14  15  16  17  18  19  20  21  22  23  25  26  27 0
 3-21G
 ****
 35  36  37  38  39  40  41  42  43  44  45 0
 3-21G
 ****


