%nproc=1
%NoSave
%Mem=1900MB
#P OB98/GEN NMR

erre ene a

0 1
  C      309.257    -897.100    -899.203
  O      308.831    -898.160    -898.323
  P      309.721    -898.530    -897.033
  C      308.102    -897.940    -895.043
  O      309.275    -897.610    -895.813
  C      307.208    -896.720    -894.883
  O      306.696    -896.270    -896.163
  C      305.998    -896.920    -894.003
  O      306.330    -896.950    -892.633
  C      305.127    -895.750    -894.413
  O      305.496    -894.560    -893.683
  C      305.436    -895.600    -895.903
  N      304.358    -896.120    -896.763
  C      303.242    -895.320    -896.893
  O      303.092    -894.250    -896.283
  N      302.255    -895.810    -897.723
  C      302.262    -896.990    -898.373
  O      301.353    -897.390    -899.093
  C      303.471    -897.840    -898.123
  C      304.436    -897.390    -897.343
  O      311.148    -897.920    -897.443
  O      309.840    -900.000    -896.753
  H      304.909    -893.840    -894.033
  H      311.853    -898.420    -896.993
  H      301.444    -895.210    -897.863
  H      303.509    -898.820    -898.593
  H      305.317    -897.990    -897.163
  H      305.597    -894.560    -896.163
  H      304.065    -895.920    -894.193
  H      305.493    -897.860    -894.313
  H      307.855    -895.880    -894.483
  H      308.421    -898.300    -894.073
  H      307.579    -898.750    -895.573
  P      306.746    -898.390    -891.983
  C      309.129    -897.690    -891.153
  O      308.342    -898.440    -892.063
  O      306.238    -899.370    -893.133
  O      306.122    -898.600    -890.653
  H      306.313    -898.970    -894.043
  H      308.634    -897.610    -890.163
  H      309.319    -896.690    -891.573
  H      310.081    -898.190    -891.033
  H      308.551    -896.993    -900.000
  H      310.219    -897.337    -899.607
  H      309.317    -896.183    -898.654

 3  4  5  6  7  8  9  10  11  12  13  23  28  29  30  31  32 0
 6-311+G(2d,p)
 ****
 33  34 0
 6-311+G(2d,p)
 ****
 1  2  14  15  16  17  18  19  20  21  22  24  25  26 0
 3-21G
 ****
 27  35  36  37  38  39  40  41  42  43  44  45 0
 3-21G
 ****


