%nproc=1
%NoSave
%Mem=1900MB
#P OB98/GEN NMR

erre ene a

0 1
  C      -20.337    -404.523    -210.127
  O      -19.321    -404.294    -209.167
  H      -20.648    -405.568    -210.063
  H      -19.959    -404.326    -211.136
  H      -21.197    -403.882    -209.919
  P      -18.697    -402.817    -209.125
  C      -16.985    -403.741    -210.816
  O      -17.176    -403.015    -209.609
  C      -15.502    -404.048    -211.028
  O      -14.790    -402.794    -211.187
  C      -14.861    -404.800    -209.861
  O      -13.926    -405.748    -210.371
  C      -14.120    -403.714    -209.100
  O      -13.023    -404.229    -208.346
  C      -13.723    -402.762    -210.226
  N      -10.740    -399.835    -207.296
  C      -10.622    -401.113    -207.711
  N      -11.460    -401.816    -208.507
  C      -12.481    -401.040    -208.920
  C      -12.733    -399.723    -208.580
  C      -11.809    -399.115    -207.716
  N      -11.932    -397.817    -207.269
  N      -13.910    -399.290    -209.167
  C      -14.349    -400.324    -209.862
  N      -13.526    -401.409    -209.730
  O      -18.864    -402.078    -207.839
  O      -19.380    -402.135    -210.403
  H      -12.312    -404.480    -208.970
  H      -19.374    -402.737    -211.173
  H       -9.749    -401.650    -207.354
  H      -15.251    -400.341    -210.460
  H      -12.791    -403.064    -210.725
  H      -14.811    -403.223    -208.398
  H      -15.598    -405.305    -209.237
  H      -15.386    -404.597    -211.971
  H      -17.365    -403.165    -211.669
  H      -11.214    -397.454    -206.663
  H      -12.712    -397.258    -207.587
  H      -17.555    -404.671    -210.744
  P      -14.395    -407.273    -210.533
  C      -12.696    -408.105    -208.772
  O      -13.179    -408.231    -210.112
  O      -15.064    -407.614    -211.822
  O      -15.407    -407.456    -209.303
  H      -16.147    -408.023    -209.584
  H      -11.891    -408.793    -208.617
  H      -13.488    -408.322    -208.086
  H      -12.348    -407.106    -208.611

 6  7  8  9  10  11  12  13  14  15  25  28  32  33  34  35 0
 6-311+G(2d,p)
 ****
 36  39  40 0
 6-311+G(2d,p)
 ****
 1  2  3  4  5  16  17  18  19  20  21  22  23  24 0
 3-21G
 ****
 26  27  29  30  31  37  38  41  42  43  44  45  46  47 0
 3-21G
 ****
 48 0
 3-21G
 ****


