%nproc=1
%NoSave
%Mem=1900MB
#P OB98/GEN NMR

erre ene a

0 1
  C      102.232     425.197    1361.571
  O      101.428     424.850    1360.450
  H      101.604     425.168    1362.474
  H      102.630     426.203    1361.455
  H      103.038     424.466    1361.693
  P      102.126     424.659    1359.030
  C      102.241     427.132    1358.284
  O      101.627     425.861    1358.098
  C      102.127     427.964    1357.015
  O      102.892     427.340    1355.932
  C      100.698     428.094    1356.477
  O       99.947     429.034    1357.242
  C      100.956     428.504    1355.045
  O      101.237     429.920    1354.951
  C      102.208     427.667    1354.697
  N      101.894     426.445    1353.936
  C      100.999     426.602    1352.858
  O      100.459     427.677    1352.592
  N      100.708     425.469    1352.155
  C      101.145     424.200    1352.476
  O      100.783     423.208    1351.877
  C      102.051     424.102    1353.624
  C      102.393     425.217    1354.288
  O      102.012     423.303    1358.423
  O      103.660     425.048    1359.314
  H      102.005     430.079    1355.532
  H      104.210     424.224    1359.340
  H      100.070     425.551    1351.395
  H      102.421     423.121    1353.903
  H      103.058     425.147    1355.141
  H      102.913     428.264    1354.100
  H      100.100     428.303    1354.390
  H      100.192     427.112    1356.486
  H      102.562     428.981    1357.200
  H      103.304     426.980    1358.525
  H      101.761     427.639    1359.134
  P       98.753     428.532    1358.182
  C       97.019     427.600    1356.548
  O       97.395     428.690    1357.359
  O       98.746     429.089    1359.572
  O       98.960     426.926    1358.241
  H       99.117     426.662    1359.161
  H       96.099     427.826    1356.051
  H       96.891     426.730    1357.157
  H       97.782     427.417    1355.820

 6  7  8  9  10  11  12  13  14  15  16  26  31  32  33  34  35 0
 6-311+G(2d,p)
 ****
 36  37 0
 6-311+G(2d,p)
 ****
 1  2  3  4  5  17  18  19  20  21  22  23  24  25 0
 3-21G
 ****
 27  28  29  30  38  39  40  41  42  43  44  45 0
 3-21G
 ****


