%nproc=1
%NoSave
%Mem=1900MB
#P OB98/GEN NMR

erre ene a

0 1
  C      -95.409     193.817      85.818
  O      -95.570     194.775      86.853
  P      -94.245     195.332      87.571
  C      -95.126     195.023      90.005
  O      -94.181     194.641      89.019
  C      -94.420     195.656      91.207
  O      -95.420     196.283      92.053
  C      -93.635     194.673      92.083
  O      -92.512     195.389      92.613
  C      -94.610     194.355      93.203
  O      -93.964     193.859      94.371
  C      -95.291     195.711      93.375
  N      -98.989     198.139      95.829
  C      -97.735     198.584      95.453
  N      -97.455     199.880      95.720
  N      -96.839     197.831      94.870
  C      -97.267     196.564      94.654
  C      -98.468     195.994      95.013
  C      -99.463     196.847      95.623
  O     -100.615     196.519      95.895
  N      -98.504     194.661      94.706
  C      -97.359     194.444      94.088
  N      -96.597     195.576      93.990
  O      -94.628     196.851      87.894
  O      -92.979     195.214      86.781
  H      -93.216     194.460      94.577
  H      -94.322     197.449      87.186
  H      -99.644     198.770      96.259
  H      -97.033     193.497      93.690
  H      -94.702     196.402      93.991
  H      -95.326     193.596      92.862
  H      -98.107     200.523      96.139
  H      -93.299     193.780      91.546
  H      -96.556     200.239      95.426
  H      -93.760     196.453      90.840
  H      -95.662     194.135      90.347
  H      -95.850     195.719      89.570
  P      -91.091     194.643      92.641
  C      -91.201     194.284      95.203
  O      -91.068     193.693      93.926
  O      -90.078     195.821      93.034
  O      -90.691     194.012      91.348
  H      -89.213     195.664      92.616
  H      -91.562     193.531      95.907
  H      -91.910     195.122      95.190
  H      -90.225     194.646      95.543
  H      -96.369     193.540      85.436
  H      -94.916     192.951      86.207
  H      -94.820     194.238      85.030

 3  4  5  6  7  8  9  10  11  12  23  26  30  31 0
 6-311+G(2d,p)
 ****
 33  35  36  37  38 0
 6-311+G(2d,p)
 ****
 1  2  13  14  15  16  17  18  19  20  21  22  24  25 0
 3-21G
 ****
 27  28  29  32  34  39  40  41  42  43  44  45  46  47  48  49 0
 3-21G
 ****


