%nproc=1
%NoSave
%Mem=1900MB
#P OB98/GEN NMR

erre ene a

0 1
  C     -458.524    -189.153    -328.195
  O     -457.181    -188.825    -327.831
  P     -456.851    -187.255    -327.685
  C     -455.584    -186.931    -329.928
  O     -456.738    -186.635    -329.164
  C     -455.381    -185.887    -331.031
  O     -455.368    -184.538    -330.516
  C     -454.065    -186.061    -331.788
  O     -454.193    -187.095    -332.753
  C     -453.887    -184.681    -332.418
  O     -454.632    -184.556    -333.645
  C     -454.476    -183.750    -331.346
  N     -452.466    -179.269    -330.027
  C     -453.367    -179.583    -331.041
  N     -453.801    -178.546    -331.792
  N     -453.787    -180.798    -331.293
  C     -453.270    -181.730    -330.455
  C     -452.395    -181.539    -329.405
  C     -451.937    -180.196    -329.142
  O     -451.160    -179.867    -328.243
  N     -452.140    -182.719    -328.749
  C     -452.748    -183.634    -329.488
  N     -453.502    -183.075    -330.498
  O     -455.338    -187.247    -327.144
  O     -457.771    -186.538    -326.753
  H     -454.346    -185.253    -334.266
  H     -455.326    -186.950    -326.213
  H     -452.174    -178.327    -329.886
  H     -452.707    -184.695    -329.312
  H     -455.087    -182.950    -331.792
  H     -452.840    -184.477    -332.662
  H     -453.524    -177.588    -331.656
  H     -453.243    -186.265    -331.088
  H     -454.466    -178.754    -332.537
  H     -456.227    -185.972    -331.728
  H     -455.672    -187.922    -330.377
  H     -454.713    -186.968    -329.261
  P     -453.913    -188.605    -332.269
  C     -451.619    -188.887    -333.475
  O     -452.319    -188.804    -332.241
  O     -454.390    -189.479    -333.531
  O     -454.631    -189.002    -331.028
  H     -454.908    -190.241    -333.211
  H     -450.600    -188.508    -333.327
  H     -452.109    -188.301    -334.260
  H     -451.557    -189.934    -333.788
  H     -458.626    -190.216    -328.262
  H     -458.755    -188.712    -329.142
  H     -459.197    -188.776    -327.453

 3  4  5  6  7  8  9  10  11  12  23  26  30  31 0
 6-311+G(2d,p)
 ****
 33  35  36  37  38 0
 6-311+G(2d,p)
 ****
 1  2  13  14  15  16  17  18  19  20  21  22  24  25 0
 3-21G
 ****
 27  28  29  32  34  39  40  41  42  43  44  45  46  47  48  49 0
 3-21G
 ****


