%nproc=1
%NoSave
%Mem=1900MB
#P OB98/GEN NMR

erre ene a

0 1
  C     -384.381     242.565    -136.365
  O     -383.144     241.905    -136.566
  P     -382.832     240.622    -135.652
  C     -384.144     239.162    -137.359
  O     -383.974     239.551    -135.998
  C     -383.496     237.800    -137.604
  O     -382.074     237.891    -137.406
  C     -383.972     236.710    -136.663
  O     -385.243     236.232    -137.054
  C     -382.856     235.681    -136.808
  O     -383.099     234.806    -137.920
  C     -381.611     236.566    -137.061
  N     -380.709     236.597    -135.921
  C     -379.594     235.750    -136.005
  O     -379.440     235.027    -136.988
  N     -378.711     235.721    -134.951
  C     -378.924     236.466    -133.915
  N     -378.014     236.401    -132.904
  C     -380.094     237.355    -133.778
  C     -380.941     237.368    -134.808
  O     -383.221     241.121    -134.184
  O     -381.428     240.124    -135.733
  H     -383.975     234.402    -137.750
  H     -382.720     240.631    -133.505
  H     -380.227     237.956    -132.890
  H     -381.829     237.990    -134.793
  H     -381.052     236.195    -137.927
  H     -382.771     235.047    -135.918
  H     -384.001     237.078    -135.629
  H     -383.676     237.517    -138.651
  H     -377.226     235.778    -133.022
  H     -383.669     239.903    -138.008
  H     -378.080     236.954    -132.063
  H     -385.214     239.127    -137.587
  P     -386.102     235.427    -135.972
  C     -387.447     237.560    -135.514
  O     -386.641     236.544    -134.955
  O     -384.963     234.707    -135.101
  O     -387.113     234.458    -136.485
  H     -385.370     234.097    -134.460
  H     -387.870     238.158    -134.701
  H     -388.268     237.125    -136.091
  H     -386.844     238.212    -136.153
  H     -384.455     243.395    -137.036
  H     -384.438     242.916    -135.356
  H     -385.184     241.883    -136.552

 3  4  5  6  7  8  9  10  11  12  13  21  23  27  28  29  30  32 0
 6-311+G(2d,p)
 ****
 34  35 0
 6-311+G(2d,p)
 ****
 1  2  14  15  16  17  18  19  20  22  24  25  26 0
 3-21G
 ****
 31  33  36  37  38  39  40  41  42  43  44  45  46 0
 3-21G
 ****


