%nproc=1
%NoSave
%Mem=1900MB
#P OB98/GEN NMR

erre ene a

0 1
  C      275.525     -37.894    -148.364
  O      276.940     -37.978    -148.432
  P      277.611     -38.187    -149.877
  C      277.315     -35.636    -150.310
  O      277.133     -36.957    -150.789
  C      277.126     -34.621    -151.438
  O      277.306     -33.285    -150.898
  C      278.105     -34.772    -152.611
  O      277.408     -34.366    -153.795
  C      279.186     -33.757    -152.284
  O      279.939     -33.367    -153.427
  C      278.351     -32.645    -151.659
  N      279.224     -27.890    -150.172
  C      278.392     -28.366    -151.168
  N      277.648     -27.446    -151.819
  N      278.300     -29.628    -151.499
  C      279.091     -30.432    -150.749
  C      279.984     -30.077    -149.766
  C      280.050     -28.684    -149.386
  O      280.708     -28.229    -148.452
  N      280.676     -31.163    -149.299
  C      280.144     -32.182    -149.942
  N      279.148     -31.795    -150.800
  O      276.801     -39.435    -150.468
  O      279.091     -38.411    -149.878
  H      280.649     -32.762    -153.124
  H      277.268     -40.274    -150.290
  H      279.241     -26.907    -149.951
  H      280.432     -33.217    -149.826
  H      277.877     -31.999    -152.414
  H      279.885     -34.184    -151.550
  H      277.646     -26.461    -151.596
  H      278.497     -35.786    -152.724
  H      277.006     -27.771    -152.532
  H      276.090     -34.693    -151.795
  H      278.334     -35.536    -149.920
  H      276.613     -35.443    -149.491
  P      277.828     -35.049    -155.182
  C      276.115     -36.995    -155.165
  O      277.474     -36.607    -155.084
  O      279.431     -35.032    -155.116
  O      277.338     -34.341    -156.404
  H      279.792     -34.936    -156.015
  H      276.069     -38.041    -155.479
  H      275.568     -36.383    -155.887
  H      275.650     -36.900    -154.182
  H      275.224     -37.756    -147.346
  H      275.095     -38.798    -148.743
  H      275.188     -37.065    -148.951

 3  4  5  6  7  8  9  10  11  12  23  26  30  31 0
 6-311+G(2d,p)
 ****
 33  35  36  37  38 0
 6-311+G(2d,p)
 ****
 1  2  13  14  15  16  17  18  19  20  21  22  24  25 0
 3-21G
 ****
 27  28  29  32  34  39  40  41  42  43  44  45  46  47  48  49 0
 3-21G
 ****


