%nproc=1
%NoSave
%Mem=1900MB
#P OB98/GEN NMR

erre ene a

0 1
  C       91.017      78.015    -426.661
  O       91.244      79.422    -426.710
  P       90.622      80.183    -427.983
  C       91.533      81.559    -429.984
  O       91.842      80.726    -428.871
  C       92.759      81.730    -430.889
  O       93.804      82.504    -430.208
  C       93.405      80.400    -431.335
  O       93.894      80.595    -432.665
  C       94.557      80.264    -430.352
  O       95.527      79.308    -430.763
  C       95.021      81.719    -430.284
  N       99.888      82.058    -428.765
  C       99.326      81.736    -429.953
  N       98.024      81.661    -430.269
  C       97.258      81.968    -429.216
  C       97.669      82.302    -427.935
  C       99.056      82.347    -427.721
  N       99.640      82.642    -426.507
  N       96.581      82.533    -427.109
  C       95.523      82.266    -427.862
  N       95.887      81.993    -429.156
  O       89.983      81.514    -427.348
  O       89.620      79.369    -428.731
  H       96.285      79.323    -430.146
  H       89.012      81.396    -427.225
  H      100.024      81.493    -430.752
  H       94.506      82.232    -427.521
  H       95.558      82.027    -431.190
  H       94.163      79.936    -429.379
  H       92.705      79.548    -431.325
  H       92.455      82.315    -431.782
  H       91.199      82.549    -429.637
  H      100.642      82.641    -426.448
  H       99.057      82.862    -425.708
  H       90.694      81.113    -430.541
  P       93.696      79.423    -433.742
  C       95.240      77.581    -434.671
  O       95.075      78.579    -433.673
  O       93.897      80.227    -435.110
  O       92.405      78.657    -433.668
  H       94.705      80.777    -435.082
  H       96.227      77.144    -434.561
  H       95.143      78.022    -435.674
  H       94.496      76.783    -434.522
  H       91.470      77.611    -425.780
  H       91.446      77.554    -427.526
  H       89.964      77.824    -426.641

 3  4  5  6  7  8  9  10  11  12  22  25  29  30  31  32 0
 6-311+G(2d,p)
 ****
 33  36  37 0
 6-311+G(2d,p)
 ****
 1  2  13  14  15  16  17  18  19  20  21  23  24  26 0
 3-21G
 ****
 27  28  34  35  38  39  40  41  42  43  44  45  46  47  48 0
 3-21G
 ****


