%nproc=1
%NoSave
%Mem=1900MB
#P OB98/GEN NMR

erre ene a

0 1
  C       -0.437       4.276      16.650
  O        0.794       4.325      15.949
  P        0.783       4.903      14.450
  C       -0.052       7.141      13.410
  O       -0.163       6.199      14.464
  C       -1.439       7.544      12.903
  O       -1.957       6.471      12.075
  C       -2.473       7.807      14.002
  O       -3.356       8.824      13.511
  C       -3.218       6.489      14.095
  O       -4.507       6.626      14.684
  C       -3.227       6.066      12.631
  N       -6.545       2.253      12.780
  C       -6.718       3.590      13.092
  N       -7.968       3.968      13.434
  N       -5.755       4.473      13.068
  C       -4.564       3.949      12.691
  C       -4.260       2.642      12.397
  C       -5.341       1.683      12.390
  O       -5.251       0.510      12.037
  N       -2.923       2.481      12.146
  C       -2.436       3.703      12.208
  N       -3.400       4.633      12.491
  O       -0.077       3.815      13.656
  O        2.127       5.134      13.835
  H       -5.149       6.788      13.963
  H        0.500       3.146      13.239
  H       -7.330       1.624      12.798
  H       -1.404       3.974      12.055
  H       -4.024       6.555      12.056
  H       -2.643       5.783      14.706
  H       -8.763       3.348      13.444
  H       -2.032       8.113      14.955
  H       -8.129       4.948      13.636
  H       -1.328       8.427      12.262
  H        0.501       6.683      12.584
  H        0.505       8.017      13.756
  P       -4.117       9.738      14.584
  C       -3.401      11.710      16.102
  O       -3.008      10.542      15.410
  O       -4.658       8.665      15.645
  O       -5.243      10.550      14.031
  H       -5.500       8.976      16.026
  H       -2.682      11.902      16.903
  H       -4.397      11.602      16.542
  H       -3.399      12.558      15.414
  H       -0.275       3.871      17.627
  H       -1.127       3.655      16.117
  H       -0.839       5.264      16.735

 3  4  5  6  7  8  9  10  11  12  23  26  30  31 0
 6-311+G(2d,p)
 ****
 33  35  36  37  38 0
 6-311+G(2d,p)
 ****
 1  2  13  14  15  16  17  18  19  20  21  22  24  25 0
 3-21G
 ****
 27  28  29  32  34  39  40  41  42  43  44  45  46  47  48  49 0
 3-21G
 ****


