%nproc=1
%NoSave
%Mem=1900MB
#P OB98/GEN NMR

erre ene a

0 1
  C      105.032    -501.233    -178.049
  O      103.645    -501.483    -177.964
  H      105.253    -500.292    -177.537
  H      105.336    -501.143    -179.095
  H      105.593    -502.036    -177.565
  P      103.117    -502.848    -178.621
  C      103.443    -503.887    -176.258
  O      103.625    -504.032    -177.662
  C      103.439    -505.262    -175.595
  O      102.198    -505.938    -175.895
  C      104.543    -506.193    -176.085
  O      105.790    -505.904    -175.479
  C      103.976    -507.553    -175.690
  O      104.249    -507.859    -174.317
  C      102.469    -507.357    -175.895
  N      101.732    -511.771    -178.332
  C      102.150    -511.490    -177.080
  N      102.303    -510.282    -176.498
  C      101.962    -509.301    -177.351
  C      101.526    -509.436    -178.659
  C      101.411    -510.743    -179.152
  N      101.020    -511.029    -180.440
  N      101.321    -508.194    -179.229
  C      101.614    -507.328    -178.278
  N      102.002    -507.954    -177.129
  O      104.035    -502.996    -179.926
  O      101.664    -502.875    -178.953
  H      104.004    -507.066    -173.800
  H      103.569    -502.623    -180.696
  H      102.400    -512.350    -176.464
  H      101.574    -506.250    -178.382
  H      101.881    -507.796    -175.080
  H      104.409    -508.352    -176.292
  H      104.621    -506.147    -177.177
  H      103.501    -505.124    -174.510
  H      102.484    -503.393    -176.068
  H      104.251    -503.266    -175.859
  H      100.983    -511.990    -180.733
  H      100.882    -510.267    -181.090
  P      107.128    -506.225    -176.295
  C      107.667    -503.738    -176.831
  O      107.360    -505.028    -177.340
  O      106.707    -507.461    -177.224
  O      108.315    -506.544    -175.449
  H      107.024    -508.299    -176.839
  H      107.792    -503.054    -177.644
  H      108.572    -503.785    -176.262
  H      106.868    -503.403    -176.203

 6  7  8  9  10  11  12  13  14  15  25  28  32  33  34  35 0
 6-311+G(2d,p)
 ****
 36  37  40 0
 6-311+G(2d,p)
 ****
 1  2  3  4  5  16  17  18  19  20  21  22  23  24 0
 3-21G
 ****
 26  27  29  30  31  38  39 41  42  43  44  45  46  47  48 0
 3-21G
 ****


