%nproc=1
%NoSave
%Mem=1900MB
#P OB98/GEN NMR

erre ene a

0 1
  C     -410.955     -88.789    -446.846
  O     -410.753     -90.135    -446.459
  H     -411.988     -88.514    -446.611
  H     -410.805     -88.684    -447.923
  H     -410.282     -88.120    -446.304
  P     -409.278     -90.754    -446.564
  C     -409.173     -91.203    -449.106
  O     -408.715     -90.400    -448.026
  C     -408.131     -91.250    -450.229
  O     -406.927     -91.886    -449.723
  C     -408.588     -92.029    -451.465
  O     -408.094     -91.388    -452.637
  C     -407.920     -93.382    -451.296
  O     -407.718     -94.045    -452.543
  C     -406.622     -93.002    -450.583
  N     -402.983     -96.503    -450.405
  C     -403.181     -95.465    -451.299
  N     -402.289     -95.349    -452.304
  N     -404.170     -94.615    -451.215
  C     -404.973     -94.834    -450.145
  C     -404.885     -95.823    -449.191
  C     -403.800     -96.773    -449.312
  O     -403.586     -97.718    -448.566
  N     -405.906     -95.726    -448.279
  C     -406.609     -94.684    -448.674
  N     -406.089     -94.112    -449.811
  O     -409.177     -92.201    -446.193
  O     -408.394     -89.838    -445.599
  H     -407.073     -93.509    -453.050
  H     -408.186     -90.302    -444.769
  H     -402.212     -97.138    -450.527
  H     -407.493     -94.299    -448.187
  H     -405.834     -92.692    -451.283
  H     -408.542     -94.027    -450.663
  H     -401.484     -95.959    -452.416
  H     -409.677     -92.113    -451.520
  H     -402.388     -94.583    -452.952
  H     -407.859     -90.221    -450.490
  H     -410.104     -90.771    -449.484
  H     -409.377     -92.217    -448.739
  P     -409.138     -90.725    -453.664
  C     -410.225     -92.776    -454.766
  O     -410.392     -91.714    -453.835
  O     -408.550     -90.224    -454.940
  O     -409.762     -89.517    -452.804
  H     -409.952     -88.769    -453.406
  H     -411.117     -93.366    -454.797
  H     -409.402     -93.389    -454.464
  H     -410.031     -92.372    -455.737

 6  7  8  9  10  11  12  13  14  15  26  29  33  34 0
 6-311+G(2d,p)
 ****
 36  38  39  40  41 0
 6-311+G(2d,p)
 ****
 1  2  3  4  5  16  17  18  19  20  21  22  23  24  25 0
 3-21G
 ****
 27  28  30  31  32  35  37  42  43  44  45  46  47 0
 3-21G
 ****
 48  49 0
 3-21G
 ****


