%nproc=1
%NoSave
%Mem=1900MB
#P OB98/GEN NMR

erre ene a

0 1
  C      206.923    -225.605     458.674
  O      206.362    -225.354     457.402
  H      206.212    -225.283     459.442
  H      207.856    -225.046     458.801
  H      207.115    -226.677     458.797
  P      207.305    -225.660     456.135
  C      207.896    -223.122     456.074
  O      208.371    -224.459     456.152
  C      209.066    -222.172     455.823
  O      208.610    -220.810     455.714
  C      210.119    -222.170     456.933
  O      210.990    -223.281     456.864
  C      210.833    -220.864     456.621
  O      211.699    -221.051     455.485
  C      209.643    -219.942     456.269
  N      209.133    -219.199     457.419
  C      209.845    -218.049     457.781
  O      210.853    -217.709     457.166
  N      209.415    -217.325     458.875
  C      208.369    -217.704     459.532
  N      207.993    -216.957     460.614
  C      207.581    -218.893     459.171
  C      208.013    -219.592     458.120
  O      206.384    -225.294     454.879
  O      207.902    -227.029     456.080
  H      212.365    -221.714     455.746
  H      206.916    -225.334     454.049
  H      206.717    -219.184     459.757
  H      207.485    -220.482     457.793
  H      209.921    -219.233     455.482
  H      211.457    -220.515     457.448
  H      209.651    -222.085     457.924
  H      209.517    -222.444     454.852
  H      208.587    -216.182     460.876
  H      207.405    -222.870     457.021
  H      207.312    -217.273     461.288
  H      207.169    -223.024     455.258
  P      211.693    -223.756     458.235
  C      213.928    -222.602     457.566
  O      212.886    -222.717     458.535
  O      212.461    -225.090     457.797
  O      210.753    -223.992     459.381
  H      212.416    -225.768     458.509
  H      214.645    -221.880     457.897
  H      213.513    -222.289     456.631
  H      214.407    -223.551     457.443

 6  7  8  9  10  11  12  13  14  15  16  26  30  31  32  33  35 0
 6-311+G(2d,p)
 ****
 37  38 0
 6-311+G(2d,p)
 ****
 1  2  3  4  5  17  18  19  20  21  22  23  24  25 0
 3-21G
 ****
 27  28  29  34  36  39  40  41  42  43  44  45  46 0
 3-21G
 ****


