%nproc=1
%NoSave
%Mem=1900MB
#P OB98/GEN NMR

erre ene a

0 1
  C       -6.390      64.513      30.630
  O       -5.554      65.141      29.681
  H       -7.161      65.222      30.939
  H       -5.817      64.214      31.513
  H       -6.877      63.640      30.188
  P       -4.264      64.343      29.155
  C       -4.008      62.095      27.892
  O       -4.845      62.917      28.691
  C       -4.244      60.623      28.222
  O       -3.849      60.325      29.577
  C       -5.699      60.172      28.134
  O       -6.168      60.033      26.804
  C       -5.607      58.841      28.862
  O       -5.007      57.860      27.996
  C       -4.657      59.202      30.030
  N       -5.369      59.547      31.258
  C       -5.737      58.482      32.090
  O       -5.465      57.323      31.780
  N       -6.442      58.752      33.238
  C       -6.767      59.974      33.522
  N       -7.506      60.181      34.647
  C       -6.385      61.127      32.685
  C       -5.700      60.846      31.578
  O       -3.097      64.285      30.087
  O       -3.922      65.024      27.748
  H       -5.524      57.856      27.170
  H       -3.121      64.571      27.386
  H       -6.689      62.125      32.963
  H       -5.398      61.638      30.903
  H       -3.968      58.376      30.241
  H       -6.579      58.449      29.172
  H       -6.350      60.840      28.709
  H       -3.599      60.029      27.562
  H       -7.786      59.364      35.173
  H       -2.969      62.378      28.085
  H       -8.026      61.042      34.785
  H       -4.229      62.250      26.832
  P       -7.755      60.093      26.556
  C       -9.472      62.052      26.613
  O       -8.250      61.520      27.098
  O       -8.323      59.060      27.634
  O       -8.205      59.779      25.165
  H       -8.441      58.173      27.243
  H       -9.654      63.002      27.071
  H      -10.272      61.382      26.850
  H       -9.412      62.174      25.552

 6  7  8  9  10  11  12  13  14  15  16  26  30  31  32  33  35 0
 6-311+G(2d,p)
 ****
 37  38 0
 6-311+G(2d,p)
 ****
 1  2  3  4  5  17  18  19  20  21  22  23  24  25 0
 3-21G
 ****
 27  28  29  34  36  39  40  41  42  43  44  45  46 0
 3-21G
 ****


