%nproc=1
%NoSave
%Mem=1900MB
#P OB98/GEN NMR

erre ene a

0 1
  C      417.132    -358.562     244.285
  O      417.833    -359.055     245.408
  H      416.298    -359.233     244.072
  H      417.796    -358.536     243.417
  H      416.738    -357.562     244.486
  P      418.979    -358.107     246.018
  C      417.179    -357.058     247.574
  O      418.229    -356.830     246.641
  C      417.185    -355.977     248.648
  O      418.290    -356.178     249.560
  C      417.329    -354.561     248.110
  O      416.082    -354.032     247.673
  C      417.821    -353.837     249.358
  O      416.719    -353.604     250.255
  C      418.785    -354.870     249.957
  N      423.303    -352.823     251.004
  C      422.112    -352.740     251.700
  N      422.118    -351.994     252.824
  N      421.008    -353.328     251.317
  C      421.144    -354.025     250.167
  C      422.269    -354.181     249.395
  C      423.491    -353.536     249.826
  O      424.577    -353.599     249.266
  N      422.027    -354.976     248.300
  C      420.746    -355.279     248.400
  N      420.167    -354.722     249.508
  O      419.698    -357.510     244.714
  O      419.959    -358.779     246.916
  H      416.063    -353.075     249.761
  H      420.653    -357.414     244.897
  H      424.123    -352.337     251.339
  H      420.203    -355.896     247.696
  H      418.795    -354.839     251.050
  H      418.261    -352.866     249.135
  H      422.921    -351.479     253.149
  H      418.094    -354.503     247.332
  H      421.262    -351.946     253.371
  H      416.260    -356.079     249.236
  H      417.325    -358.041     248.042
  H      416.222    -357.061     247.044
  P      416.122    -352.784     246.659
  C      416.224    -354.194     244.477
  O      416.907    -353.313     245.359
  O      417.171    -351.795     247.343
  O      414.803    -352.134     246.410
  H      417.013    -350.877     247.039
  H      416.870    -354.457     243.665
  H      415.350    -353.709     244.095
  H      415.938    -355.078     245.007

 6  7  8  9  10  11  12  13  14  15  26  29  33  34 0
 6-311+G(2d,p)
 ****
 36  38  39  40  41 0
 6-311+G(2d,p)
 ****
 1  2  3  4  5  16  17  18  19  20  21  22  23  24  25 0
 3-21G
 ****
 27  28  30  31  32  35  37  42  43  44  45  46  47 0
 3-21G
 ****
 48  49 0
 3-21G
 ****


