%nproc=1
%NoSave
%Mem=1900MB
#P OB98/GEN NMR

erre ene a

0 1
  C      100.374    -201.366    -228.236
  O       99.731    -202.261    -229.120
  H      101.114    -201.918    -227.651
  H       99.644    -200.924    -227.554
  H      100.883    -200.576    -228.795
  P       98.682    -201.634    -230.158
  C       96.450    -202.887    -229.679
  O       97.618    -202.794    -230.479
  C       95.602    -204.074    -230.137
  O       95.169    -203.834    -231.504
  C       96.362    -205.404    -230.123
  O       95.466    -206.448    -229.729
  C       96.762    -205.592    -231.576
  O       97.006    -206.944    -231.933
  C       95.555    -204.979    -232.293
  N       95.857    -204.584    -233.666
  C       95.548    -205.488    -234.677
  O       94.973    -206.563    -234.504
  N       95.934    -205.118    -235.940
  C       96.598    -203.976    -236.278
  O       96.934    -203.711    -237.426
  C       96.903    -203.064    -235.167
  C       96.527    -203.404    -233.932
  O       99.524    -201.527    -231.515
  O       98.074    -200.334    -229.755
  H       99.968    -200.659    -231.573
  H       96.224    -207.472    -231.672
  H       95.714    -205.763    -236.684
  H       97.438    -202.151    -235.395
  H       96.750    -202.761    -233.089
  H       94.711    -205.680    -232.286
  H       97.671    -205.017    -231.790
  H       97.228    -205.392    -229.461
  H       94.698    -204.126    -229.517
  H       95.869    -201.966    -229.784
  H       96.739    -203.009    -228.630
  P       95.313    -206.735    -228.157
  C       96.783    -208.878    -228.433
  O       95.573    -208.308    -227.968
  O       93.738    -206.565    -227.957
  O       96.160    -205.839    -227.316
  H       93.213    -206.896    -228.706
  H       96.786    -209.928    -228.225
  H       97.610    -208.414    -227.937
  H       96.868    -208.723    -229.488

 6  7  8  9  10  11  12  13  14  15  16  27  31  32  33  34  35 0
 6-311+G(2d,p)
 ****
 36  37 0
 6-311+G(2d,p)
 ****
 1  2  3  4  5  17  18  19  20  21  22  23  24  25 0
 3-21G
 ****
 26  28  29  30  38  39  40  41  42  43  44  45 0
 3-21G
 ****


