%nproc=1
%NoSave
%Mem=1900MB
#P OB98/GEN NMR

erre ene a

0 1
  C      -26.527      24.271      -6.507
  O      -25.367      24.086      -7.299
  P      -24.163      25.135      -7.151
  C      -22.825      26.063      -5.090
  O      -23.963      25.378      -5.578
  C      -23.239      27.390      -4.446
  O      -23.661      28.309      -5.490
  C      -24.393      27.275      -3.442
  O      -24.149      28.233      -2.404
  C      -25.600      27.682      -4.269
  O      -26.687      28.124      -3.471
  C      -24.984      28.769      -5.156
  N      -25.756      29.035      -6.370
  C      -27.081      29.434      -6.224
  O      -27.644      29.555      -5.138
  N      -27.762      29.669      -7.390
  C      -27.285      29.483      -8.654
  O      -27.946      29.691      -9.663
  C      -25.895      29.013      -8.746
  C      -25.205      28.825      -7.620
  O      -24.857      26.478      -7.668
  O      -22.929      24.739      -7.885
  H      -25.796      26.540      -7.422
  H      -27.422      28.358      -4.066
  H      -28.714      29.996      -7.308
  H      -25.484      28.839      -9.732
  H      -24.180      28.478      -7.662
  H      -24.867      29.698      -4.585
  H      -25.939      26.825      -4.862
  H      -24.477      26.274      -3.012
  H      -22.356      27.828      -3.965
  H      -22.141      26.268      -5.917
  H      -22.301      25.427      -4.369
  P      -24.761      27.942      -0.944
  C      -24.122      26.312       1.002
  O      -24.016      26.650      -0.362
  O      -26.203      27.369      -1.351
  O      -24.843      29.133      -0.047
  H      -26.158      26.688      -2.040
  H      -23.846      25.262       1.127
  H      -25.142      26.449       1.369
  H      -23.436      26.929       1.588
  H      -27.232      23.495      -6.720
  H      -26.964      25.221      -6.731
  H      -26.261      24.236      -5.471

 3  4  5  6  7  8  9  10  11  12  13  24  28  29  30  31  32 0
 6-311+G(2d,p)
 ****
 33  34 0
 6-311+G(2d,p)
 ****
 1  2  14  15  16  17  18  19  20  21  22  23  25  26  27 0
 3-21G
 ****
 35  36  37  38  39  40  41  42  43  44  45 0
 3-21G
 ****


