%nproc=1
%NoSave
%Mem=1900MB
#P OB98/GEN NMR

erre ene a

0 1
  C     -119.599     451.945    -174.332
  O     -119.714     453.295    -173.861
  P     -118.379     454.180    -173.873
  C     -118.430     454.301    -171.282
  O     -118.321     455.022    -172.504
  C     -118.806     455.250    -170.134
  O     -120.122     455.805    -170.306
  C     -118.822     454.564    -168.770
  O     -117.489     454.461    -168.277
  C     -119.678     455.516    -167.953
  O     -118.907     456.633    -167.441
  C     -120.707     456.018    -168.980
  N     -125.721     456.769    -168.934
  C     -124.673     457.685    -168.864
  N     -125.029     458.992    -168.794
  N     -123.417     457.365    -168.860
  C     -123.214     456.010    -168.943
  C     -124.163     455.013    -169.053
  C     -125.557     455.395    -169.048
  O     -126.501     454.635    -169.137
  N     -123.575     453.776    -169.175
  C     -122.282     454.022    -169.013
  N     -122.011     455.371    -168.929
  O     -118.665     455.283    -174.997
  O     -117.146     453.381    -174.179
  H     -118.269     456.316    -166.783
  H     -118.093     455.111    -175.776
  H     -126.674     457.084    -168.932
  H     -121.507     453.276    -168.978
  H     -120.890     457.089    -168.894
  H     -120.123     455.032    -167.088
  H     -125.992     459.322    -168.789
  H     -119.292     453.571    -168.838
  H     -124.286     459.675    -168.746
  H     -118.073     456.069    -170.142
  H     -117.475     453.815    -171.049
  H     -119.168     453.502    -171.397
  P     -116.903     452.988    -167.996
  C     -116.253     453.287    -165.499
  O     -115.820     453.104    -166.849
  O     -116.039     452.681    -169.312
  O     -117.956     451.944    -167.795
  H     -116.219     451.779    -169.632
  H     -115.533     452.846    -164.825
  H     -117.233     452.840    -165.336
  H     -116.313     454.365    -165.290
  H     -120.553     451.464    -174.273
  H     -118.895     451.415    -173.726
  H     -119.263     451.949    -175.348

 3  4  5  6  7  8  9  10  11  12  23  26  30  31 0
 6-311+G(2d,p)
 ****
 33  35  36  37  38 0
 6-311+G(2d,p)
 ****
 1  2  13  14  15  16  17  18  19  20  21  22  24  25 0
 3-21G
 ****
 27  28  29  32  34  39  40  41  42  43  44  45  46  47  48  49 0
 3-21G
 ****


