%nproc=1
%NoSave
%Mem=1900MB
#P OB98/GEN NMR

erre ene a

0 1
  C      -19.166     -23.978      51.419
  O      -19.600     -22.767      52.003
  H      -19.429     -23.966      50.358
  H      -19.663     -24.829      51.891
  H      -18.082     -24.081      51.508
  P      -19.335     -22.534      53.568
  C      -20.011     -23.900      55.663
  O      -20.256     -23.637      54.291
  C      -20.993     -24.944      56.184
  O      -22.343     -24.432      56.201
  C      -21.079     -26.217      55.349
  O      -19.959     -27.072      55.492
  C      -22.346     -26.823      55.925
  O      -22.065     -27.399      57.212
  C      -23.241     -25.568      56.053
  N      -24.119     -25.382      54.899
  C      -25.496     -25.420      55.147
  O      -25.925     -25.611      56.283
  N      -26.363     -25.273      54.090
  C      -25.896     -25.127      52.889
  N      -26.799     -24.993      51.880
  C      -24.453     -25.101      52.581
  C      -23.631     -25.230      53.619
  O      -19.505     -21.133      54.060
  O      -17.870     -23.126      53.819
  H      -22.798     -28.008      57.417
  H      -17.652     -22.996      54.774
  H      -24.116     -25.006      51.560
  H      -22.557     -25.227      53.472
  H      -23.854     -25.618      56.961
  H      -22.768     -27.614      55.302
  H      -21.257     -25.980      54.293
  H      -20.719     -25.164      57.224
  H      -27.781     -25.015      52.121
  H      -20.109     -22.960      56.214
  H      -26.527     -24.951      50.907
  H      -18.996     -24.285      55.795
  P      -19.585     -27.999      54.232
  C      -20.746     -30.034      53.078
  O      -20.661     -29.184      54.211
  O      -18.230     -28.707      54.694
  O      -19.442     -27.274      52.931
  H      -17.454     -28.252      54.315
  H      -21.513     -30.763      53.236
  H      -19.808     -30.528      52.932
  H      -20.981     -29.451      52.212

 6  7  8  9  10  11  12  13  14  15  16  26  30  31  32  33  35 0
 6-311+G(2d,p)
 ****
 37  38 0
 6-311+G(2d,p)
 ****
 1  2  3  4  5  17  18  19  20  21  22  23  24  25 0
 3-21G
 ****
 27  28  29  34  36  39  40  41  42  43  44  45  46 0
 3-21G
 ****


