%nproc=1
%NoSave
%Mem=1900MB
#P OB98/GEN NMR

erre ene a

0 1
  C      117.065     -97.112      43.021
  O      118.292     -97.173      43.711
  P      118.583     -98.184      44.912
  C      118.505     -96.212      46.628
  O      118.067     -97.520      46.277
  C      117.660     -95.639      47.778
  O      116.262     -95.932      47.515
  C      118.009     -96.304      49.119
  O      118.074     -95.400      50.218
  C      116.999     -97.441      49.210
  O      116.805     -97.928      50.531
  C      115.776     -96.819      48.543
  N      110.926     -98.261      48.035
  C      111.431     -97.078      48.534
  N      110.541     -96.257      49.139
  N      112.700     -96.753      48.478
  C      113.484     -97.723      47.948
  C      113.096     -98.933      47.421
  C      111.688     -99.262      47.460
  O      111.209    -100.350      47.132
  N      114.172     -99.692      47.035
  C      115.216     -98.953      47.361
  N      114.849     -97.765      47.949
  O      119.924     -98.849      44.915
  O      117.472     -99.328      44.652
  H      116.426     -97.200      51.061
  H      117.868    -100.181      44.932
  H      109.946     -98.491      48.182
  H      116.252     -99.241      47.223
  H      115.191     -96.227      49.249
  H      117.385     -98.276      48.621
  H      109.594     -96.547      49.328
  H      119.019     -96.730      49.085
  H      110.920     -95.517      49.724
  H      117.776     -94.550      47.803
  H      118.381     -95.594      45.727
  H      119.563     -96.216      46.892
  P      119.011     -95.454      51.509
  C      117.492     -96.672      53.181
  O      118.638     -96.764      52.357
  O      118.498     -94.268      52.448
  O      120.470     -95.300      51.229
  H      119.263     -93.830      52.870
  H      117.505     -97.503      53.895
  H      116.587     -96.748      52.565
  H      117.482     -95.726      53.733
  H      117.119     -96.358      42.264
  H      116.281     -96.872      43.708
  H      116.864     -98.060      42.567

 3  4  5  6  7  8  9  10  11  12  23  26  30  31 0
 6-311+G(2d,p)
 ****
 33  35  36  37  38 0
 6-311+G(2d,p)
 ****
 1  2  13  14  15  16  17  18  19  20  21  22  24  25 0
 3-21G
 ****
 27  28  29  32  34  39  40  41  42  43  44  45  46  47  48  49 0
 3-21G
 ****


