%nproc=1
%NoSave
%Mem=1900MB
#P OB98/GEN NMR

erre ene a

0 1
  C     -278.403    -298.316     137.573
  O     -277.173    -298.067     136.920
  H     -279.073    -297.471     137.395
  H     -278.233    -298.414     138.647
  H     -278.870    -299.228     137.183
  P     -276.167    -299.307     136.766
  C     -276.636    -300.456     139.048
  O     -275.718    -299.717     138.254
  C     -276.483    -300.082     140.521
  O     -277.564    -300.647     141.298
  C     -275.189    -300.575     141.161
  O     -274.106    -299.689     140.901
  C     -275.572    -300.543     142.634
  O     -275.540    -299.182     143.117
  C     -277.024    -301.045     142.593
  N     -279.371    -304.758     145.135
  C     -279.427    -303.385     145.310
  N     -280.222    -302.943     146.313
  N     -278.772    -302.526     144.576
  C     -278.001    -303.117     143.625
  C     -277.852    -304.459     143.361
  C     -278.601    -305.396     144.169
  O     -278.593    -306.621     144.042
  N     -276.988    -304.673     142.323
  C     -276.593    -303.464     141.974
  N     -277.174    -302.483     142.741
  O     -274.855    -298.625     136.148
  O     -276.657    -300.421     135.905
  H     -276.061    -298.643     142.490
  H     -274.819    -298.820     135.193
  H     -279.891    -305.373     145.736
  H     -275.895    -303.246     141.178
  H     -277.647    -300.578     143.362
  H     -274.892    -301.121     143.261
  H     -280.737    -303.552     146.929
  H     -274.949    -301.605     140.867
  H     -280.280    -301.942     146.460
  H     -276.564    -298.991     140.599
  H     -276.435    -301.526     138.920
  H     -277.654    -300.236     138.712
  P     -272.721    -300.317     140.388
  C     -272.060    -300.562     142.881
  O     -271.658    -300.159     141.583
  O     -272.230    -299.247     139.300
  O     -272.820    -301.683     139.793
  H     -272.275    -299.634     138.407
  H     -271.257    -300.401     143.569
  H     -272.316    -301.601     142.869
  H     -272.911    -299.989     143.185

 6  7  8  9  10  11  12  13  14  15  26  29  33  34 0
 6-311+G(2d,p)
 ****
 36  38  39  40  41 0
 6-311+G(2d,p)
 ****
 1  2  3  4  5  16  17  18  19  20  21  22  23  24  25 0
 3-21G
 ****
 27  28  30  31  32  35  37  42  43  44  45  46  47 0
 3-21G
 ****
 48  49 0
 3-21G
 ****


