%nproc=1
%NoSave
%Mem=1900MB
#P OB98/GEN NMR

erre ene a

0 1
  C       69.121     606.271     585.325
  O       70.273     605.442     585.377
  H       68.637     606.130     584.348
  H       69.399     607.322     585.425
  H       68.414     605.989     586.109
  P       71.164     605.477     586.711
  C       71.039     602.922     587.098
  O       70.689     604.216     587.584
  C       69.933     601.926     587.424
  O       68.782     602.160     586.585
  C       70.337     600.463     587.212
  O       71.084     599.992     588.321
  C       68.964     599.816     587.087
  O       68.368     599.690     588.389
  C       68.203     600.866     586.257
  N       67.480     597.612     582.429
  C       67.333     597.425     583.796
  N       66.988     596.178     584.191
  N       67.536     598.363     584.678
  C       67.935     599.535     584.134
  C       68.125     599.837     582.808
  C       67.854     598.808     581.826
  O       67.949     598.936     580.613
  N       68.607     601.118     582.639
  C       68.675     601.599     583.870
  N       68.288     600.669     584.817
  O       71.172     606.770     587.472
  O       72.623     605.055     586.215
  H       67.449     599.394     588.250
  H       73.161     605.841     585.988
  H       67.324     596.845     581.797
  H       68.980     602.599     584.129
  H       67.136     600.902     586.514
  H       69.000     598.816     586.650
  H       67.109     595.377     583.595
  H       70.875     600.322     586.273
  H       66.933     596.013     585.191
  H       69.621     602.094     588.460
  H       71.977     602.631     587.584
  H       71.203     602.958     586.009
  P       72.607     599.484     588.149
  C       73.354     601.136     590.001
  O       73.504     600.720     588.646
  O       72.945     598.983     586.785
  O       72.803     598.415     589.309
  H       72.553     597.487     589.050
  H       74.006     601.962     590.195
  H       73.603     600.325     590.653
  H       72.341     601.434     590.173

 6  7  8  9  10  11  12  13  14  15  26  29  33  34 0
 6-311+G(2d,p)
 ****
 36  38  39  40  41 0
 6-311+G(2d,p)
 ****
 1  2  3  4  5  16  17  18  19  20  21  22  23  24  25 0
 3-21G
 ****
 27  28  30  31  32  35  37  42  43  44  45  46  47 0
 3-21G
 ****
 48  49 0
 3-21G
 ****


