%nproc=1
%NoSave
%Mem=1900MB
#P OB98/GEN NMR

erre ene a

0 1
  C       70.299     172.438     -94.939
  O       68.895     172.449     -94.770
  H       70.595     171.464     -95.333
  H       70.802     172.596     -93.981
  H       70.603     173.210     -95.651
  P       68.209     173.761     -94.160
  C       66.778     174.551     -96.159
  O       67.962     174.751     -95.397
  C       66.029     175.870     -96.328
  O       65.853     176.515     -95.052
  C       66.735     176.883     -97.228
  O       66.490     176.594     -98.593
  C       66.067     178.169     -96.775
  O       64.748     178.258     -97.350
  C       65.962     177.952     -95.254
  N       67.409     180.970     -91.441
  C       66.169     180.821     -92.030
  N       65.182     181.611     -91.555
  N       65.922     179.984     -93.003
  C       67.018     179.312     -93.423
  C       68.302     179.386     -92.931
  C       68.547     180.268     -91.809
  O       69.627     180.411     -91.242
  N       69.169     178.624     -93.671
  C       68.400     178.048     -94.575
  N       67.085     178.440     -94.474
  O       68.920     174.398     -93.005
  O       66.732     173.289     -93.770
  H       64.855     178.232     -98.319
  H       66.691     172.987     -92.844
  H       67.542     181.637     -90.699
  H       68.740     177.340     -95.322
  H       65.061     178.412     -94.833
  H       66.613     179.062     -97.082
  H       65.343     182.374     -90.916
  H       67.805     176.941     -97.005
  H       64.281     181.557     -92.015
  H       65.026     175.639     -96.711
  H       66.159     173.827     -95.621
  H       67.022     174.140     -97.143
  P       67.616     176.827     -99.716
  C       67.555     174.364    -100.505
  O       68.320     175.399     -99.912
  O       68.553     177.950     -99.439
  O       66.792     176.980    -101.075
  H       66.476     177.904    -101.232
  H       68.148     173.476    -100.572
  H       67.249     174.664    -101.486
  H       66.690     174.171     -99.905

 6  7  8  9  10  11  12  13  14  15  26  29  33  34 0
 6-311+G(2d,p)
 ****
 36  38  39  40  41 0
 6-311+G(2d,p)
 ****
 1  2  3  4  5  16  17  18  19  20  21  22  23  24  25 0
 3-21G
 ****
 27  28  30  31  32  35  37  42  43  44  45  46  47 0
 3-21G
 ****
 48  49 0
 3-21G
 ****


