%nproc=1
%NoSave
%Mem=1900MB
#P OB98/GEN NMR

erre ene a

0 1
  C      112.144      54.435     -87.635
  O      111.355      53.407     -87.069
  H      112.508      54.131     -88.620
  H      111.526      55.329     -87.749
  H      112.988      54.670     -86.980
  P      112.092      52.009     -86.792
  C      112.955      50.069     -88.283
  O      112.224      51.284     -88.217
  C      113.102      49.622     -89.735
  O      113.793      50.632     -90.498
  C      113.905      48.340     -89.929
  O      113.124      47.184     -89.667
  C      114.260      48.449     -91.404
  O      113.131      48.054     -92.206
  C      114.516      49.956     -91.560
  N      118.473      52.043     -94.043
  C      117.173      51.898     -94.378
  N      116.174      51.350     -93.655
  C      116.626      50.941     -92.459
  C      117.916      51.041     -91.966
  C      118.872      51.617     -92.818
  N      120.216      51.699     -92.489
  N      117.999      50.494     -90.699
  C      116.784      50.058     -90.443
  N      115.919      50.311     -91.472
  O      110.965      51.158     -86.033
  O      113.349      52.100     -85.993
  H      113.284      48.412     -93.101
  H      111.115      51.215     -85.072
  H      116.898      52.267     -95.361
  H      116.488      49.552     -89.534
  H      114.132      50.344     -92.510
  H      115.100      47.812     -91.692
  H      114.827      48.349     -89.337
  H      112.094      49.518     -90.159
  H      112.426      49.294     -87.719
  H      120.832      51.678     -93.296
  H      120.486      51.132     -91.694
  H      113.939      50.227     -87.833
  P      113.722      46.094     -88.653
  C      115.687      44.414     -88.730
  O      114.827      45.267     -89.474
  O      112.513      45.058     -88.490
  O      114.161      46.625     -87.333
  H      112.284      44.965     -87.545
  H      116.369      43.927     -89.395
  H      115.103      43.679     -88.217
  H      116.236      44.994     -88.018

 6  7  8  9  10  11  12  13  14  15  25  28  32  33  34  35 0
 6-311+G(2d,p)
 ****
 36  39  40 0
 6-311+G(2d,p)
 ****
 1  2  3  4  5  16  17  18  19  20  21  22  23  24 0
 3-21G
 ****
 26  27  29  30  31  37  38  41  42  43  44  45  46  47  48 0
 3-21G
 ****


