%nproc=1
%NoSave
%Mem=1900MB
#P OB98/GEN NMR

erre ene a

0 1
  C      -61.766    -289.374     260.034
  O      -62.729    -290.420     260.001
  P      -62.914    -291.322     261.314
  C      -60.525    -292.311     261.538
  O      -61.882    -292.548     261.190
  C      -59.590    -293.243     260.770
  O      -58.211    -292.882     261.077
  C      -59.752    -294.730     261.102
  O      -59.467    -295.465     259.904
  C      -58.648    -294.981     262.114
  O      -58.305    -296.359     262.206
  C      -57.552    -294.081     261.548
  N      -54.048    -295.942     264.776
  C      -54.866    -296.550     263.890
  N      -55.771    -295.984     263.064
  C      -55.792    -294.649     263.221
  C      -55.041    -293.894     264.108
  C      -54.129    -294.596     264.915
  N      -53.286    -293.978     265.810
  N      -55.359    -292.556     263.992
  C      -56.281    -292.503     263.054
  N      -56.555    -293.740     262.543
  O      -64.339    -292.007     261.072
  O      -62.878    -290.581     262.607
  H      -59.094    -296.851     262.511
  H      -64.991    -291.655     261.710
  H      -54.777    -297.633     263.831
  H      -56.777    -291.605     262.719
  H      -57.035    -294.537     260.695
  H      -58.971    -294.643     263.105
  H      -60.744    -294.997     261.486
  H      -59.732    -293.069     259.695
  H      -60.403    -292.496     262.610
  H      -52.569    -294.530     266.253
  H      -53.203    -292.963     265.786
  H      -60.272    -291.265     261.336
  P      -60.693    -296.249     259.225
  C      -59.910    -298.549     260.135
  O      -60.208    -297.759     259.002
  O      -60.745    -295.640     257.744
  O      -61.995    -296.077     259.939
  H      -61.654    -295.693     257.397
  H      -60.169    -299.589     259.923
  H      -60.463    -298.219     261.021
  H      -58.834    -298.487     260.345
  H      -61.759    -288.866     259.092
  H      -60.797    -289.787     260.224
  H      -62.017    -288.682     260.811

 3  4  5  6  7  8  9  10  11  12  22  25  29  30  31  32 0
 6-311+G(2d,p)
 ****
 33  36  37 0
 6-311+G(2d,p)
 ****
 1  2  13  14  15  16  17  18  19  20  21  23  24  26 0
 3-21G
 ****
 27  28  34  35  38  39  40  41  42  43  44  45  46  47  48 0
 3-21G
 ****


