%nproc=1
%NoSave
%Mem=1900MB
#P OB98/GEN NMR

erre ene a

0 1
  C       16.388      -2.039     326.609
  O       15.786      -2.287     325.336
  P       16.311      -1.413     324.098
  C       15.181       0.893     324.441
  O       16.373       0.126     324.556
  C       15.416       2.352     324.849
  O       16.335       3.009     323.929
  C       14.137       3.198     324.873
  O       14.274       4.165     325.925
  C       14.178       3.920     323.540
  O       13.339       5.071     323.541
  C       15.677       4.185     323.418
  N       16.522       7.856     319.973
  C       16.125       7.902     321.263
  N       15.899       6.871     322.110
  C       16.171       5.699     321.505
  C       16.571       5.497     320.198
  C       16.745       6.647     319.408
  N       17.123       6.602     318.086
  N       16.702       4.148     319.933
  C       16.378       3.550     321.065
  N       16.082       4.449     322.051
  O       15.081      -1.454     323.073
  O       17.560      -1.940     323.473
  H       13.688       5.703     324.201
  H       15.300      -2.023     322.313
  H       15.961       8.895     321.672
  H       16.337       2.481     321.217
  H       15.997       5.048     324.021
  H       13.834       3.244     322.742
  H       13.214       2.626     325.015
  H       15.883       2.365     325.842
  H       14.398       0.467     325.074
  H       17.198       7.471     317.581
  H       17.248       5.705     317.639
  H       14.809       0.824     323.415
  P       13.638       3.775     327.342
  C       11.116       3.659     326.749
  O       12.307       2.945     327.025
  O       13.092       5.172     327.904
  O       14.598       3.128     328.285
  H       13.056       5.152     328.876
  H       10.584       3.159     325.938
  H       11.308       4.693     326.458
  H       10.484       3.653     327.643
  H       15.950      -2.684     327.342
  H       16.225      -1.019     326.888
  H       17.439      -2.229     326.549

 3  4  5  6  7  8  9  10  11  12  22  25  29  30  31  32 0
 6-311+G(2d,p)
 ****
 33  36  37 0
 6-311+G(2d,p)
 ****
 1  2  13  14  15  16  17  18  19  20  21  23  24  26 0
 3-21G
 ****
 27  28  34  35  38  39  40  41  42  43  44  45  46  47  48 0
 3-21G
 ****


