%nproc=1
%NoSave
%Mem=1900MB
#P OB98/GEN NMR

erre ene a

0 1
  C     -895.970    -905.159    1673.158
  O     -897.370    -904.996    1673.388
  H     -895.610    -904.310    1672.577
  H     -895.780    -906.070    1672.613
  H     -895.420    -905.165    1674.114
  P     -898.090    -906.020    1674.372
  C     -898.940    -904.189    1676.028
  O     -898.080    -905.319    1675.846
  C     -898.120    -902.968    1676.512
  O     -897.200    -902.573    1675.428
  C     -898.950    -901.756    1676.905
  O     -898.240    -901.023    1677.912
  C     -898.940    -900.976    1675.595
  O     -899.450    -899.661    1675.726
  C     -897.470    -901.164    1675.179
  N     -897.150    -900.806    1673.812
  C     -897.280    -899.472    1673.419
  O     -897.690    -898.571    1674.181
  N     -896.990    -899.208    1672.101
  C     -896.540    -900.084    1671.178
  O     -896.270    -899.768    1670.002
  C     -896.440    -901.465    1671.675
  C     -896.710    -901.772    1672.911
  O     -897.590    -907.433    1674.355
  O     -899.630    -905.908    1673.966
  H     -899.880    -906.683    1673.418
  H     -898.950    -899.198    1676.395
  H     -897.100    -898.237    1671.863
  H     -896.080    -902.191    1670.904
  H     -896.620    -902.804    1673.275
  H     -896.810    -900.576    1675.876
  H     -899.610    -901.478    1674.843
  H     -899.950    -902.027    1677.279
  H     -897.440    -903.321    1677.354
  H     -899.670    -904.462    1676.795
  H     -899.420    -903.965    1675.091
  P     -898.560    -901.235    1679.502
  C     -896.380    -902.335    1680.439
  O     -897.710    -902.510    1680.016
  O     -900.000    -901.263    1679.835
  O     -897.810    -899.957    1680.188
  H     -898.270    -899.773    1681.031
  H     -895.975    -903.278    1680.743
  H     -896.355    -901.654    1681.264
  H     -895.798    -901.940    1679.632

 6  7  8  9  10  11  12  13  14  15  16  27  31  32  33  34  35 0
 6-311+G(2d,p)
 ****
 36  37 0
 6-311+G(2d,p)
 ****
 1  2  3  4  5  17  18  19  20  21  22  23  24  25 0
 3-21G
 ****
 26  28  29  30  38  39  40  41  42  43  44  45 0
 3-21G
 ****


