%nproc=1
%NoSave
%Mem=1900MB
#P OB98/GEN NMR

erre ene a

0 1
  C     -712.764     185.102    -114.000
  O     -714.102     185.573    -114.270
  P     -715.393     184.712    -113.869
  C     -715.337     183.473    -116.124
  O     -716.130     184.233    -115.216
  C     -716.199     182.501    -116.961
  O     -716.721     181.446    -116.160
  C     -717.399     183.183    -117.629
  O     -716.999     183.886    -118.792
  C     -718.288     181.954    -117.884
  O     -717.882     181.276    -119.089
  C     -718.029     181.095    -116.656
  N     -721.215     178.626    -113.508
  C     -720.311     178.180    -114.421
  N     -719.506     178.894    -115.209
  C     -719.669     180.212    -115.003
  C     -720.553     180.816    -114.110
  C     -721.350     179.953    -113.340
  N     -722.278     180.405    -112.421
  N     -720.447     182.200    -114.180
  C     -719.520     182.426    -115.084
  N     -719.020     181.255    -115.611
  O     -716.297     185.398    -112.881
  O     -714.818     183.355    -113.249
  H     -718.029     181.893    -119.841
  H     -715.445     182.984    -112.604
  H     -720.231     177.087    -114.512
  H     -719.173     183.398    -115.393
  H     -717.977     180.034    -116.904
  H     -719.348     182.231    -118.020
  H     -717.893     183.845    -116.913
  H     -715.540     182.063    -117.708
  H     -714.608     182.883    -115.546
  H     -722.827     179.727    -111.934
  H     -722.414     181.401    -112.319
  H     -714.790     184.157    -116.784
  P     -716.656     185.448    -118.695
  C     -719.084     186.176    -118.355
  O     -717.961     186.250    -119.197
  O     -715.361     185.850    -119.328
  O     -716.632     185.738    -117.096
  H     -716.014     186.460    -116.923
  H     -719.612     185.227    -118.545
  H     -719.754     187.003    -118.590
  H     -718.810     186.235    -117.290
  H     -712.055     185.825    -114.346
  H     -712.603     184.174    -114.507
  H     -712.642     184.959    -112.947

 3  4  5  6  7  8  9  10  11  12  22  25  29  30  31  32 0
 6-311+G(2d,p)
 ****
 33  36  37 0
 6-311+G(2d,p)
 ****
 1  2  13  14  15  16  17  18  19  20  21  23  24  26 0
 3-21G
 ****
 27  28  34  35  38  39  40  41  42  43  44  45  46  47  48 0
 3-21G
 ****


