%nproc=1
%NoSave
%Mem=1900MB
#P OB98/GEN NMR

erre ene a

0 1
  C     -119.408     194.962    -139.429
  O     -120.322     195.789    -138.726
  P     -120.925     197.114    -139.400
  C     -123.307     197.918    -139.944
  O     -122.515     196.980    -139.225
  C     -124.748     197.887    -139.437
  O     -125.321     196.600    -139.774
  C     -124.925     198.029    -137.927
  O     -124.939     199.368    -137.456
  C     -126.314     197.418    -137.749
  O     -127.317     198.380    -138.127
  C     -126.286     196.256    -138.746
  N     -127.731     192.611    -135.456
  C     -128.347     193.732    -135.894
  N     -127.888     194.663    -136.754
  C     -126.673     194.324    -137.211
  C     -125.916     193.212    -136.867
  C     -126.499     192.324    -135.939
  N     -125.876     191.168    -135.515
  N     -124.708     193.218    -137.535
  C     -124.737     194.301    -138.277
  N     -125.906     195.001    -138.127
  O     -120.447     197.377    -140.787
  O     -120.548     198.286    -138.380
  H     -127.326     198.411    -139.105
  H     -120.635     199.153    -138.821
  H     -129.340     193.912    -135.489
  H     -123.946     194.625    -138.930
  H     -127.251     196.109    -139.244
  H     -126.521     197.131    -136.713
  H     -124.193     197.421    -137.380
  H     -125.319     198.658    -139.971
  H     -123.292     197.641    -141.007
  H     -126.417     190.534    -134.955
  H     -125.036     190.875    -135.999
  H     -122.875     198.918    -139.846
  P     -125.019     199.583    -135.862
  C     -123.367     200.770    -134.208
  O     -123.895     200.674    -135.516
  O     -124.963     198.330    -135.064
  O     -126.385     200.399    -135.682
  H     -126.380     201.303    -136.050
  H     -122.512     201.449    -134.227
  H     -123.025     199.793    -133.853
  H     -124.121     201.170    -133.530
  H     -119.127     194.135    -138.811
  H     -118.537     195.529    -139.684
  H     -119.871     194.598    -140.322

 3  4  5  6  7  8  9  10  11  12  22  25  29  30  31  32 0
 6-311+G(2d,p)
 ****
 33  36  37 0
 6-311+G(2d,p)
 ****
 1  2  13  14  15  16  17  18  19  20  21  23  24  26 0
 3-21G
 ****
 27  28  34  35  38  39  40  41  42  43  44  45  46  47  48 0
 3-21G
 ****


