%nproc=1
%NoSave
%Mem=1900MB
#P OB98/GEN NMR

erre ene a

0 1
  C      -16.357    -116.267     107.562
  O      -17.318    -115.453     108.250
  P      -18.904    -115.684     108.148
  C      -20.797    -115.174     106.455
  O      -19.421    -115.016     106.782
  C      -21.141    -114.436     105.158
  O      -20.993    -113.006     105.344
  C      -20.240    -114.751     103.972
  O      -20.497    -116.033     103.426
  C      -20.564    -113.590     103.034
  O      -21.738    -113.859     102.254
  C      -20.839    -112.436     104.018
  N      -19.798    -111.419     104.007
  C      -19.540    -110.802     102.776
  O      -20.118    -111.179     101.756
  N      -18.620    -109.784     102.739
  C      -17.941    -109.482     103.801
  N      -17.057    -108.451     103.704
  C      -18.087    -110.202     105.082
  C      -19.025    -111.147     105.113
  O      -19.660    -115.237     109.360
  O      -19.089    -117.257     107.902
  H      -19.961    -117.539     108.235
  H      -22.495    -113.850     102.870
  H      -17.471    -109.946     105.933
  H      -19.209    -111.716     106.020
  H      -21.804    -111.969     103.792
  H      -19.748    -113.391     102.329
  H      -19.189    -114.682     104.287
  H      -22.189    -114.649     104.909
  H      -16.988    -107.973     102.814
  H      -21.398    -114.756     107.271
  H      -16.499    -108.125     104.477
  H      -21.028    -116.244     106.370
  P      -19.378    -117.162     103.665
  C      -17.424    -118.141     102.262
  O      -18.323    -117.065     102.461
  O      -20.163    -118.532     103.377
  O      -18.775    -117.157     105.031
  H      -19.871    -119.213     104.014
  H      -17.143    -118.171     101.205
  H      -17.870    -119.101     102.538
  H      -16.525    -117.972     102.862
  H      -15.370    -115.920     107.786
  H      -16.527    -116.205     106.507
  H      -16.458    -117.284     107.880

 3  4  5  6  7  8  9  10  11  12  13  24  27  28  29  30  32 0
 6-311+G(2d,p)
 ****
 34  35 0
 6-311+G(2d,p)
 ****
 1  2  14  15  16  17  18  19  20  21  22  23  25  26 0
 3-21G
 ****
 31  33  36  37  38  39  40  41  42  43  44  45  46 0
 3-21G
 ****


