%nproc=1
%NoSave
%Mem=1900MB
#P OB98/GEN NMR

erre ene a

0 1
  C     1337.351    -387.950    -106.594
  O     1338.242    -388.581    -107.509
  P     1339.819    -388.577    -107.225
  C     1340.623    -387.636    -109.480
  O     1340.476    -387.395    -108.084
  C     1341.244    -386.411    -110.170
  O     1340.415    -385.243    -109.957
  C     1342.621    -386.015    -109.647
  O     1343.631    -386.904    -110.074
  C     1342.746    -384.604    -110.181
  O     1343.144    -384.604    -111.567
  C     1341.287    -384.078    -110.043
  N     1341.102    -383.189    -108.914
  C     1340.532    -381.948    -109.199
  O     1340.274    -381.631    -110.375
  N     1340.283    -381.106    -108.145
  C     1340.682    -381.399    -106.959
  N     1340.331    -380.548    -105.962
  C     1341.432    -382.632    -106.649
  C     1341.598    -383.476    -107.663
  O     1340.481    -389.917    -107.373
  O     1339.944    -388.046    -105.717
  H     1340.504    -388.667    -105.216
  H     1344.068    -384.901    -111.605
  H     1341.813    -382.800    -105.645
  H     1342.149    -384.420    -107.523
  H     1340.993    -383.569    -110.959
  H     1343.496    -384.000    -109.633
  H     1342.602    -386.002    -108.536
  H     1341.279    -386.608    -111.247
  H     1339.803    -379.732    -106.196
  H     1339.667    -387.846    -109.912
  H     1340.313    -380.854    -104.962
  H     1341.286    -388.512    -109.601
  P     1345.118    -386.623    -109.578
  C     1346.086    -386.973    -111.958
  O     1345.959    -386.125    -110.832
  O     1345.726    -388.081    -109.281
  O     1345.206    -385.737    -108.351
  H     1346.310    -388.044    -108.509
  H     1346.340    -386.386    -112.829
  H     1345.137    -387.503    -112.156
  H     1346.862    -387.721    -111.775
  H     1336.346    -388.053    -106.946
  H     1337.597    -386.911    -106.516
  H     1337.441    -388.411    -105.633

 3  4  5  6  7  8  9  10  11  12  13  24  27  28  29  30  32 0
 6-311+G(2d,p)
 ****
 34  35 0
 6-311+G(2d,p)
 ****
 1  2  14  15  16  17  18  19  20  21  22  23  25  26 0
 3-21G
 ****
 31  33  36  37  38  39  40  41  42  43  44  45  46 0
 3-21G
 ****


