%nproc=1
%NoSave
%Mem=1900MB
#P OB98/GEN NMR

erre ene a

0 1
  C     -528.678     -27.142     624.469
  O     -529.230     -26.323     625.483
  H     -527.603     -26.989     624.434
  H     -529.106     -26.875     623.501
  H     -528.875     -28.201     624.684
  P     -530.767     -26.561     625.874
  C     -531.672     -24.192     626.460
  O     -531.149     -25.422     626.950
  C     -531.262     -23.046     627.380
  O     -531.896     -23.260     628.681
  C     -529.743     -22.942     627.630
  O     -529.404     -21.544     627.738
  C     -529.558     -23.607     628.984
  O     -528.396     -23.204     629.671
  C     -530.864     -23.181     629.687
  N     -531.171     -24.022     630.839
  C     -530.763     -23.564     632.098
  O     -530.245     -22.484     632.316
  N     -530.993     -24.432     633.137
  C     -531.533     -25.689     633.040
  O     -531.701     -26.428     634.010
  C     -531.935     -26.112     631.689
  C     -531.734     -25.282     630.662
  O     -530.711     -27.894     626.764
  O     -531.715     -26.679     624.728
  H     -530.811     -28.686     626.196
  H     -527.634     -23.289     629.057
  H     -530.692     -24.135     634.048
  H     -532.370     -27.104     631.566
  H     -532.016     -25.560     629.659
  H     -530.784     -22.133     630.006
  H     -529.533     -24.698     628.854
  H     -529.133     -23.411     626.848
  H     -531.662     -22.100     626.985
  H     -532.767     -24.246     626.413
  H     -531.289     -24.011     625.437
  P     -527.945     -21.109     627.216
  C     -527.386     -19.666     629.336
  O     -527.644     -19.713     627.944
  O     -528.274     -20.732     625.697
  O     -526.917     -22.174     627.390
  H     -529.142     -20.312     625.582
  H     -527.210     -18.653     629.632
  H     -526.523     -20.258     629.559
  H     -528.230     -20.051     629.868

 6  7  8  9  10  11  12  13  14  15  16  27  31  32  33  34  35 0
 6-311+G(2d,p)
 ****
 36  37 0
 6-311+G(2d,p)
 ****
 1  2  3  4  5  17  18  19  20  21  22  23  24  25 0
 3-21G
 ****
 26  28  29  30  38  39  40  41  42  43  44  45 0
 3-21G
 ****


