%nproc=1
%NoSave
%Mem=1900MB
#P OB98/GEN NMR

erre ene a

0 1
  C      -45.995      79.492     136.146
  O      -46.134      78.421     135.234
  P      -45.059      77.231     135.204
  C      -44.692      78.111     132.808
  O      -44.080      77.573     133.977
  C      -43.956      79.365     132.338
  O      -43.971      80.376     133.365
  C      -42.489      79.136     132.003
  O      -42.357      78.508     130.741
  C      -41.948      80.558     132.064
  O      -42.196      81.262     130.837
  C      -42.772      81.168     133.218
  N      -42.017      81.242     134.462
  C      -41.319      82.435     134.683
  O      -41.336      83.332     133.840
  N      -40.577      82.560     135.833
  C      -40.521      81.573     136.672
  N      -39.760      81.754     137.786
  C      -41.216      80.288     136.461
  C      -41.937      80.192     135.346
  O      -45.632      75.854     135.203
  O      -44.145      77.538     136.484
  H      -43.166      81.270     130.718
  H      -44.613      77.309     137.324
  H      -41.130      79.491     137.183
  H      -42.478      79.284     135.110
  H      -43.104      82.182     132.959
  H      -40.867      80.580     132.234
  H      -42.019      78.532     132.787
  H      -44.486      79.762     131.462
  H      -39.275      82.637     137.878
  H      -45.727      78.369     133.049
  H      -39.618      81.040     138.483
  H      -44.701      77.349     132.022
  P      -41.610      77.098     130.626
  C      -39.779      78.107     129.140
  O      -40.064      77.386     130.323
  O      -42.261      76.099     129.728
  O      -41.586      76.565     132.137
  H      -41.828      75.619     132.145
  H      -38.769      78.519     129.215
  H      -40.489      78.926     128.999
  H      -39.824      77.432     128.282
  H      -46.804      80.180     136.014
  H      -45.067      79.994     135.968
  H      -46.009      79.113     137.146

 3  4  5  6  7  8  9  10  11  12  13  23  27  28  29  30  32 0
 6-311+G(2d,p)
 ****
 34  35 0
 6-311+G(2d,p)
 ****
 1  2  14  15  16  17  18  19  20  21  22  24  25  26 0
 3-21G
 ****
 31  33  36  37  38  39  40  41  42  43  44  45  46 0
 3-21G
 ****


