%nproc=1
%NoSave
%Mem=1900MB
#P OB98/GEN NMR

erre ene a

0 1
  C       95.310    -130.774    -231.013
  O       95.066    -132.007    -231.657
  P       96.260    -133.009    -232.025
  C       96.411    -132.026    -234.404
  O       97.108    -132.299    -233.195
  C       97.303    -132.327    -235.614
  O       98.298    -131.266    -235.736
  C       98.056    -133.665    -235.488
  O       97.900    -134.546    -236.602
  C       99.483    -133.223    -235.200
  O      100.461    -134.204    -235.493
  C       99.561    -131.910    -235.987
  N      100.699    -131.085    -235.583
  C      101.889    -131.253    -236.288
  O      102.040    -132.031    -237.224
  N      102.957    -130.525    -235.844
  C      102.989    -129.750    -234.720
  O      104.005    -129.206    -234.326
  C      101.715    -129.641    -233.992
  C      100.641    -130.285    -234.461
  O       95.849    -134.407    -232.327
  O       97.247    -132.870    -230.771
  H      100.244    -135.004    -234.976
  H       97.591    -131.973    -230.615
  H      103.826    -130.635    -236.346
  H      101.711    -129.045    -233.091
  H       99.687    -130.221    -233.943
  H       99.633    -132.089    -237.060
  H       99.560    -133.009    -234.125
  H       97.680    -134.253    -234.636
  H       96.668    -132.315    -236.509
  H       96.130    -130.967    -234.419
  H       95.484    -132.613    -234.442
  P       97.504    -136.091    -236.508
  C       99.773    -137.073    -237.327
  O       98.846    -136.934    -236.268
  O       96.634    -136.599    -237.600
  O       96.755    -136.204    -235.093
  H       96.103    -136.923    -235.122
  H      100.313    -138.018    -237.198
  H      100.492    -136.249    -237.289
  H       99.274    -137.080    -238.299
  H       94.383    -130.262    -230.860
  H       95.953    -130.174    -231.623
  H       95.779    -130.952    -230.068

 3  4  5  6  7  8  9  10  11  12  13  23  28  29  30  31  32 0
 6-311+G(2d,p)
 ****
 33  34 0
 6-311+G(2d,p)
 ****
 1  2  14  15  16  17  18  19  20  21  22  24  25  26  27 0
 3-21G
 ****
 35  36  37  38  39  40  41  42  43  44  45 0
 3-21G
 ****


