%nproc=1
%NoSave
%Mem=1900MB
#P OB98/GEN NMR

erre ene a

0 1
  C      295.131     316.482    -176.991
  O      295.202     317.564    -177.894
  H      295.521     316.808    -176.023
  H      295.734     315.643    -177.346
  H      294.092     316.164    -176.857
  P      294.749     317.330    -179.413
  C      296.799     318.513    -180.442
  O      295.384     318.525    -180.274
  C      297.240     319.711    -181.292
  O      296.770     319.488    -182.644
  C      296.651     321.037    -180.789
  O      297.639     322.041    -180.572
  C      295.550     321.336    -181.800
  O      295.234     322.706    -181.940
  C      296.061     320.663    -183.079
  N      295.004     320.309    -184.024
  C      294.393     321.350    -184.715
  O      294.685     322.538    -184.612
  N      293.394     320.977    -185.580
  C      292.958     319.706    -185.805
  O      292.062     319.435    -186.596
  C      293.629     318.653    -185.028
  C      294.605     318.997    -184.186
  O      293.289     317.115    -179.627
  O      295.604     316.058    -179.880
  H      294.933     323.032    -181.067
  H      295.036     315.264    -179.875
  H      292.951     321.722    -186.094
  H      293.300     317.634    -185.175
  H      295.124     318.245    -183.597
  H      296.766     321.313    -183.597
  H      294.636     320.829    -181.470
  H      296.198     320.912    -179.798
  H      298.334     319.738    -181.322
  H      297.073     317.577    -180.935
  H      297.286     318.556    -179.461
  P      298.057     322.610    -179.140
  C      297.846     325.205    -179.453
  O      298.688     324.066    -179.347
  O      298.809     321.666    -178.265
  O      296.638     322.906    -178.430
  H      296.768     322.747    -177.474
  H      298.446     326.081    -179.587
  H      297.265     325.304    -178.560
  H      297.193     325.089    -180.292

 6  7  8  9  10  11  12  13  14  15  16  26  31  32  33  34  35 0
 6-311+G(2d,p)
 ****
 36  37 0
 6-311+G(2d,p)
 ****
 1  2  3  4  5  17  18  19  20  21  22  23  24  25 0
 3-21G
 ****
 27  28  29  30  38  39  40  41  42  43  44  45 0
 3-21G
 ****


