%nproc=1
%NoSave
%Mem=1900MB
#P OB98/GEN NMR

erre ene a

0 1
  C      112.402    -120.132     227.552
  O      113.312    -119.572     228.475
  H      111.487    -120.404     228.082
  H      112.830    -121.034     227.103
  H      112.157    -119.408     226.770
  P      114.729    -119.075     227.901
  C      115.737    -120.167     230.039
  O      115.701    -119.032     229.182
  C      115.254    -119.787     231.444
  O      116.028    -118.661     231.923
  C      113.775    -119.397     231.495
  O      113.167    -119.985     232.647
  C      113.797    -117.881     231.616
  O      112.625    -117.371     232.253
  C      115.112    -117.639     232.366
  N      115.646    -116.302     232.107
  C      115.214    -115.278     232.956
  O      114.414    -115.519     233.865
  N      115.658    -113.996     232.733
  C      116.414    -113.749     231.708
  N      116.801    -112.458     231.524
  C      116.853    -114.790     230.758
  C      116.438    -116.029     231.017
  O      114.461    -117.534     227.579
  O      115.255    -119.856     226.745
  H      112.480    -117.886     233.072
  H      115.181    -117.150     227.021
  H      117.469    -114.532     229.905
  H      116.712    -116.855     230.367
  H      114.970    -117.755     233.448
  H      113.852    -117.439     230.613
  H      113.222    -119.706     230.611
  H      115.469    -120.623     232.124
  H      116.471    -111.770     232.195
  H      116.762    -120.543     230.093
  H      117.363    -112.147     230.747
  H      115.085    -120.946     229.629
  P      112.233    -121.265     232.371
  C      109.942    -120.126     232.799
  O      110.894    -121.081     233.241
  O      113.007    -122.459     233.101
  O      112.005    -121.532     230.920
  H      113.516    -122.981     232.452
  H      109.110    -120.114     233.472
  H      109.604    -120.387     231.818
  H      110.394    -119.157     232.774

 6  7  8  9  10  11  12  13  14  15  16  26  30  31  32  33  35 0
 6-311+G(2d,p)
 ****
 37  38 0
 6-311+G(2d,p)
 ****
 1  2  3  4  5  17  18  19  20  21  22  23  24  25 0
 3-21G
 ****
 27  28  29  34  36  39  40  41  42  43  44  45  46 0
 3-21G
 ****


