%nproc=1
%NoSave
%Mem=1900MB
#P OB98/GEN NMR

erre ene a

0 1
  C      -62.685     646.043     -82.757
  O      -62.528     644.665     -82.495
  H      -62.536     646.592     -81.822
  H      -63.697     646.250     -83.117
  H      -61.948     646.384     -83.488
  P      -62.741     643.606     -83.683
  C      -60.767     642.240     -82.777
  O      -62.143     642.218     -83.130
  C      -60.495     641.357     -81.556
  O      -60.843     642.075     -80.344
  C      -61.290     640.042     -81.561
  O      -60.423     638.951     -81.237
  C      -62.305     640.233     -80.438
  O      -62.769     639.003     -79.888
  C      -61.506     641.130     -79.484
  N      -62.364     641.784     -78.500
  C      -62.252     641.318     -77.183
  O      -61.464     640.413     -76.913
  N      -63.076     641.847     -76.225
  C      -63.968     642.727     -76.556
  N      -64.775     643.189     -75.563
  C      -64.140     643.225     -77.940
  C      -63.313     642.716     -78.849
  O      -62.203     644.042     -85.007
  O      -64.319     643.324     -83.710
  H      -61.987     638.494     -79.572
  H      -64.567     642.984     -84.599
  H      -64.898     643.955     -78.160
  H      -63.355     643.021     -79.889
  H      -60.737     640.557     -78.959
  H      -63.171     640.779     -80.828
  H      -61.785     639.841     -82.510
  H      -59.416     641.166     -81.500
  H      -64.626     642.813     -74.631
  H      -60.470     643.276     -82.570
  H      -65.519     643.857     -75.703
  H      -60.184     641.869     -83.628
  P      -60.854     637.515     -81.813
  C      -59.666     637.823     -84.102
  O      -59.757     637.071     -82.901
  O      -62.157     637.833     -82.679
  O      -61.137     636.509     -80.743
  H      -62.943     637.466     -82.238
  H      -58.898     637.412     -84.723
  H      -59.430     638.840     -83.869
  H      -60.602     637.784     -84.619

 6  7  8  9  10  11  12  13  14  15  16  26  30  31  32  33  35 0
 6-311+G(2d,p)
 ****
 37  38 0
 6-311+G(2d,p)
 ****
 1  2  3  4  5  17  18  19  20  21  22  23  24  25 0
 3-21G
 ****
 27  28  29  34  36  39  40  41  42  43  44  45  46 0
 3-21G
 ****


