%nproc=1
%NoSave
%Mem=1900MB
#P OB98/GEN NMR

erre ene a

0 1
  C      152.195    -261.949     -64.838
  O      153.008    -263.001     -64.355
  H      152.600    -260.985     -64.521
  H      152.185    -261.986     -65.930
  H      151.170    -262.063     -64.471
  P      153.131    -263.139     -62.760
  C      151.577    -265.218     -62.793
  O      151.810    -263.916     -62.277
  C      150.324    -265.815     -62.161
  O      149.959    -267.036     -62.837
  C      150.466    -266.187     -60.688
  O      150.336    -265.051     -59.844
  C      149.295    -267.142     -60.523
  O      148.072    -266.394     -60.382
  C      149.302    -267.890     -61.864
  N      149.767    -272.307     -59.320
  C      148.922    -271.263     -59.170
  N      148.846    -270.132     -59.900
  C      149.755    -270.147     -60.888
  C      150.667    -271.144     -61.181
  C      150.658    -272.269     -60.343
  N      151.574    -273.302     -60.466
  N      151.446    -270.792     -62.268
  C      151.024    -269.590     -62.607
  N      149.998    -269.161     -61.808
  O      152.895    -261.635     -62.255
  O      154.425    -263.693     -62.269
  H      147.342    -267.027     -60.519
  H      153.760    -261.212     -62.098
  H      148.217    -271.346     -58.350
  H      151.430    -268.999     -63.417
  H      148.290    -268.083     -62.236
  H      149.387    -267.784     -59.641
  H      151.400    -266.727     -60.500
  H      149.501    -265.102     -62.305
  H      152.436    -265.858     -62.568
  H      151.778    -273.774     -59.589
  H      152.365    -273.091     -61.064
  H      151.458    -265.148     -63.879
  P      150.953    -265.147     -58.366
  C      153.295    -265.032     -59.460
  O      152.452    -265.704     -58.533
  O      150.157    -266.381     -57.728
  O      150.806    -263.921     -57.534
  H      149.718    -266.100     -56.902
  H      154.257    -265.501     -59.473
  H      153.401    -264.008     -59.168
  H      152.861    -265.081     -60.437

 6  7  8  9  10  11  12  13  14  15  25  28  32  33  34  35 0
 6-311+G(2d,p)
 ****
 36  39  40 0
 6-311+G(2d,p)
 ****
 1  2  3  4  5  16  17  18  19  20  21  22  23  24 0
 3-21G
 ****
 26  27  29  30  31  37  38  41  42  43  44  45  46  47  48 0
 3-21G
 ****


