%nproc=1
%NoSave
%Mem=1900MB
#P OB98/GEN NMR

erre ene a

0 1
  C      342.319     216.475    -279.217
  O      341.211     217.046    -278.557
  H      342.339     216.843    -280.247
  H      342.234     215.386    -279.245
  H      343.251     216.765    -278.724
  P      340.829     216.529    -277.084
  C      341.007     218.846    -275.986
  O      340.121     217.796    -276.373
  C      340.314     219.839    -275.052
  O      339.361     220.633    -275.806
  C      339.553     219.181    -273.893
  O      339.868     219.861    -272.672
  C      338.092     219.391    -274.256
  O      337.242     219.369    -273.110
  C      338.161     220.727    -275.003
  N      336.983     220.983    -275.830
  C      335.930     221.664    -275.207
  O      336.013     221.994    -274.025
  N      334.798     221.934    -275.934
  C      334.700     221.514    -277.159
  N      333.546     221.803    -277.827
  C      335.770     220.752    -277.838
  C      336.872     220.528    -277.124
  O      341.962     215.932    -276.316
  O      339.609     215.520    -277.313
  H      337.555     220.062    -272.479
  H      339.520     214.928    -276.528
  H      335.639     220.408    -278.856
  H      337.718     219.983    -277.542
  H      338.284     221.561    -274.305
  H      337.762     218.599    -274.939
  H      339.786     218.130    -273.771
  H      341.067     220.543    -274.683
  H      332.838     222.328    -277.320
  H      341.363     219.353    -276.891
  H      333.362     221.523    -278.779
  H      341.858     218.397    -275.465
  P      341.292     219.508    -272.017
  C      341.731     221.947    -271.248
  O      341.585     220.584    -270.857
  O      342.330     219.895    -273.173
  O      341.433     218.085    -271.604
  H      342.619     219.097    -273.649
  H      341.921     222.548    -270.383
  H      340.832     222.280    -271.723
  H      342.550     222.036    -271.931

 6  7  8  9  10  11  12  13  14  15  16  26  30  31  32  33  35 0
 6-311+G(2d,p)
 ****
 37  38 0
 6-311+G(2d,p)
 ****
 1  2  3  4  5  17  18  19  20  21  22  23  24  25 0
 3-21G
 ****
 27  28  29  34  36  39  40  41  42  43  44  45  46 0
 3-21G
 ****


