%nproc=1
%NoSave
%Mem=1900MB
#P OB98/GEN NMR

erre ene a

0 1
  C     -294.192      13.819     111.684
  O     -294.917      13.565     112.874
  P     -295.152      14.803     113.871
  C     -293.991      13.995     116.058
  O     -293.921      14.815     114.897
  C     -292.757      14.211     116.930
  O     -291.610      13.572     116.333
  C     -292.357      15.668     117.113
  O     -293.213      16.322     118.035
  C     -290.916      15.505     117.587
  O     -290.891      15.153     118.979
  C     -290.432      14.320     116.732
  N     -286.932      12.973     113.247
  C     -287.407      12.336     114.342
  N     -288.323      12.769     115.232
  C     -288.764      13.994     114.902
  C     -288.356      14.772     113.832
  C     -287.397      14.214     112.974
  N     -286.912      14.868     111.863
  N     -289.015      15.984     113.830
  C     -289.814      15.933     114.875
  N     -289.710      14.745     115.547
  O     -296.381      14.317     114.773
  O     -295.433      16.109     113.196
  H     -291.526      14.420     119.105
  H     -296.951      15.070     115.019
  H     -286.999      11.346     114.525
  H     -290.487      16.723     115.181
  H     -289.781      13.639     117.290
  H     -290.318      16.414     117.466
  H     -292.377      16.195     116.152
  H     -292.942      13.741     117.905
  H     -294.035      12.943     115.761
  H     -286.121      14.461     111.389
  H     -287.155      15.844     111.742
  H     -294.906      14.238     116.607
  P     -293.006      17.900     118.240
  C     -292.358      17.616     120.709
  O     -291.917      17.992     119.418
  O     -294.359      18.311     118.982
  O     -292.686      18.657     116.998
  H     -294.562      17.719     119.728
  H     -291.515      17.674     121.400
  H     -292.739      16.590     120.696
  H     -293.142      18.300     121.052
  H     -294.110      12.915     111.117
  H     -293.214      14.175     111.931
  H     -294.705      14.558     111.105

 3  4  5  6  7  8  9  10  11  12  22  25  29  30  31  32 0
 6-311+G(2d,p)
 ****
 33  36  37 0
 6-311+G(2d,p)
 ****
 1  2  13  14  15  16  17  18  19  20  21  23  24  26 0
 3-21G
 ****
 27  28  34  35  38  39  40  41  42  43  44  45  46  47  48 0
 3-21G
 ****


