%nproc=1
%NoSave
%Mem=1900MB
#P OB98/GEN NMR

erre ene a

0 1
  C     -273.243     728.157    -487.540
  O     -273.370     726.769    -487.331
  H     -272.518     728.322    -488.343
  H     -272.864     728.644    -486.637
  H     -274.196     728.599    -487.831
  P     -274.337     726.233    -486.167
  C     -276.118     724.973    -487.524
  O     -274.945     724.847    -486.722
  C     -276.492     723.634    -488.171
  O     -275.572     723.345    -489.263
  C     -276.435     722.446    -487.200
  O     -277.613     721.645    -487.337
  C     -275.220     721.647    -487.667
  O     -275.281     720.267    -487.303
  C     -275.261     721.941    -489.174
  N     -273.996     721.619    -489.829
  C     -273.502     720.324    -489.613
  O     -274.137     719.530    -488.900
  N     -272.295     719.974    -490.141
  C     -271.592     720.857    -490.790
  N     -270.387     720.458    -491.267
  C     -272.064     722.245    -491.028
  C     -273.255     722.546    -490.520
  O     -275.350     727.225    -485.696
  O     -273.356     725.736    -485.001
  H     -275.401     720.211    -486.324
  H     -273.843     725.732    -484.151
  H     -271.453     722.934    -491.569
  H     -273.684     723.539    -490.632
  H     -276.064     721.386    -489.659
  H     -274.315     722.070    -487.221
  H     -276.326     722.748    -486.155
  H     -277.485     723.731    -488.624
  H     -270.107     719.501    -491.083
  H     -275.934     725.732    -488.301
  H     -269.754     721.062    -491.774
  H     -276.942     725.305    -486.881
  P     -278.365     721.253    -485.974
  C     -279.614     723.540    -485.958
  O     -279.719     722.121    -485.888
  O     -277.434     721.878    -484.836
  O     -278.537     719.778    -485.799
  H     -276.990     721.166    -484.345
  H     -280.590     723.974    -485.888
  H     -279.166     723.819    -486.889
  H     -279.008     723.893    -485.150

 6  7  8  9  10  11  12  13  14  15  16  26  30  31  32  33  35 0
 6-311+G(2d,p)
 ****
 37  38 0
 6-311+G(2d,p)
 ****
 1  2  3  4  5  17  18  19  20  21  22  23  24  25 0
 3-21G
 ****
 27  28  29  34  36  39  40  41  42  43  44  45  46 0
 3-21G
 ****


