%nproc=1
%NoSave
%Mem=1900MB
#P OB98/GEN NMR

erre ene a

0 1
  C      113.349    -309.529     101.309
  O      113.062    -310.219     100.087
  P      114.168    -311.189      99.454
  C      115.091    -309.632      97.632
  O      115.363    -310.316      98.845
  C      116.370    -308.991      97.056
  O      117.339    -310.038      96.747
  C      116.112    -308.176      95.774
  O      116.675    -306.854      95.814
  C      116.658    -309.082      94.672
  O      117.017    -308.367      93.497
  C      117.780    -309.852      95.379
  N      118.077    -311.131      94.727
  C      118.650    -311.061      93.465
  O      118.846    -310.010      92.862
  N      118.931    -312.272      92.880
  C      118.639    -313.502      93.381
  O      118.879    -314.547      92.795
  C      117.969    -313.516      94.693
  C      117.723    -312.345      95.302
  O      113.640    -312.260      98.560
  O      114.840    -311.843     100.762
  H      116.247    -307.797      93.228
  H      115.040    -312.789     100.567
  H      119.379    -312.231      91.964
  H      117.702    -314.459      95.106
  H      117.225    -312.317      96.251
  H      118.702    -309.266      95.399
  H      115.875    -309.792      94.390
  H      115.041    -308.013      95.601
  H      116.788    -308.351      97.836
  H      114.351    -308.839      97.808
  H      114.639    -310.325      96.898
  P      115.816    -305.539      96.123
  C      115.021    -304.950      93.730
  O      114.664    -305.404      95.023
  O      116.614    -304.299      96.353
  O      115.019    -305.931      97.456
  H      114.986    -305.161      98.070
  H      114.122    -304.561      93.236
  H      115.423    -305.795      93.144
  H      115.777    -304.145      93.771
  H      112.507    -308.930     101.586
  H      114.204    -308.901     101.172
  H      113.550    -310.241     102.082

 3  4  5  6  7  8  9  10  11  12  13  23  28  29  30  31  32 0
 6-311+G(2d,p)
 ****
 33  34 0
 6-311+G(2d,p)
 ****
 1  2  14  15  16  17  18  19  20  21  22  24  25  26  27 0
 3-21G
 ****
 35  36  37  38  39  40  41  42  43  44  45 0
 3-21G
 ****


