%nproc=1
%NoSave
%Mem=1900MB
#P OB98/GEN NMR

erre ene a

0 1
  C      261.012     -22.680     196.019
  O      259.901     -22.835     195.155
  H      261.532     -21.750     195.783
  H      260.649     -22.630     197.049
  H      261.697     -23.527     195.925
  P      260.207     -23.230     193.631
  C      258.140     -22.357     192.330
  O      258.780     -23.472     192.930
  C      257.002     -22.822     191.421
  O      257.536     -23.771     190.456
  C      255.842     -23.506     192.161
  O      254.612     -23.111     191.549
  C      256.076     -24.981     191.882
  O      254.885     -25.754     191.961
  C      256.684     -24.929     190.486
  N      256.912     -28.961     187.397
  C      256.254     -27.787     187.299
  N      256.292     -26.740     188.147
  C      257.162     -26.962     189.143
  C      257.913     -28.106     189.370
  C      257.748     -29.151     188.445
  N      258.364     -30.374     188.571
  N      258.650     -27.973     190.533
  C      258.332     -26.790     191.009
  N      257.436     -26.140     190.205
  O      260.809     -24.709     193.777
  O      261.136     -22.318     192.903
  H      255.075     -26.660     191.644
  H      261.771     -24.657     193.922
  H      255.603     -27.678     186.433
  H      258.692     -26.365     191.938
  H      255.926     -24.822     189.699
  H      256.794     -25.382     192.611
  H      255.810     -23.286     193.234
  H      256.637     -21.957     190.852
  H      258.871     -21.807     191.726
  H      258.103     -31.100     187.919
  H      258.898     -30.569     189.402
  H      257.757     -21.692     193.111
  P      253.916     -21.769     192.087
  C      251.322     -22.020     192.117
  O      252.482     -21.623     191.388
  O      254.778     -20.609     191.407
  O      253.909     -21.649     193.578
  H      254.825     -19.830     191.994
  H      250.451     -21.861     191.516
  H      251.248     -21.440     193.013
  H      251.397     -23.057     192.369

 6  7  8  9  10  11  12  13  14  15  25  28  32  33  34  35 0
 6-311+G(2d,p)
 ****
 36  39  40 0
 6-311+G(2d,p)
 ****
 1  2  3  4  5  16  17  18  19  20  21  22  23  24 0
 3-21G
 ****
 26  27  29  30  31  37  38  41  42  43  44  45  46  47 0
 3-21G
 ****
 48 0
 3-21G
 ****


