%nproc=1
%NoSave
%Mem=1900MB
#P OB98/GEN NMR

erre ene a

0 1
  C     -174.442      13.575     402.483
  O     -173.061      13.421     402.243
  P     -171.989      13.799     403.375
  C     -170.600      11.662     403.012
  O     -171.403      12.408     403.924
  C     -170.839      10.169     403.211
  O     -172.188       9.796     402.825
  C     -169.948       9.276     402.351
  O     -168.567       9.288     402.623
  C     -170.666       7.945     402.467
  O     -170.335       7.273     403.684
  C     -172.153       8.389     402.479
  N     -172.817       8.126     401.203
  C     -172.796       6.803     400.774
  O     -172.265       5.889     401.400
  N     -173.388       6.565     399.562
  C     -173.945       7.496     398.739
  O     -174.420       7.219     397.644
  C     -173.919       8.880     399.242
  C     -173.364       9.129     400.433
  O     -172.483      14.726     404.436
  O     -170.755      14.379     402.531
  H     -169.361       7.250     403.750
  H     -170.368      13.751     401.895
  H     -173.374       5.611     399.225
  H     -174.360       9.648     398.618
  H     -173.333      10.143     400.824
  H     -172.702       7.860     403.270
  H     -170.406       7.266     401.647
  H     -170.049       9.603     401.309
  H     -170.736       9.937     404.273
  H     -169.545      11.885     403.207
  H     -170.830      11.972     401.985
  P     -167.538      10.315     401.942
  C     -166.052      10.812     404.008
  O     -166.992      11.305     403.079
  O     -167.960      10.918     400.643
  O     -166.264       9.368     401.686
  H     -165.795       9.680     400.890
  H     -165.826      11.604     404.728
  H     -165.129      10.522     403.505
  H     -166.468       9.957     404.552
  H     -174.991      13.273     401.616
  H     -174.654      14.601     402.700
  H     -174.729      12.968     403.316

 3  4  5  6  7  8  9  10  11  12  13  23  28  29  30  31  32 0
 6-311+G(2d,p)
 ****
 33  34 0
 6-311+G(2d,p)
 ****
 1  2  14  15  16  17  18  19  20  21  22  24  25  26  27 0
 3-21G
 ****
 35  36  37  38  39  40  41  42  43  44  45 0
 3-21G
 ****


