%nproc=1
%NoSave
%Mem=1900MB
#P OB98/GEN NMR

erre ene a

0 1
  C       29.933     -48.110       3.841
  O       30.083     -46.828       3.267
  H       29.217     -48.680       3.245
  H       29.546     -48.021       4.861
  H       30.886     -48.647       3.851
  P       31.216     -45.851       3.841
  C       31.534     -44.417       5.965
  O       30.686     -45.307       5.251
  C       30.762     -43.719       7.092
  O       29.905     -42.692       6.500
  C       29.849     -44.653       7.910
  O       29.774     -44.114       9.237
  C       28.531     -44.485       7.170
  O       27.442     -45.027       7.872
  C       28.559     -42.965       6.951
  N       27.583     -42.450       5.998
  C       26.595     -41.598       6.481
  O       26.488     -41.245       7.658
  N       25.692     -41.146       5.554
  C       25.692     -41.441       4.221
  O       24.878     -40.982       3.431
  C       26.756     -42.352       3.772
  C       27.644     -42.803       4.664
  O       31.705     -44.801       2.900
  O       32.394     -46.851       4.268
  H       33.096     -46.839       3.589
  H       27.618     -45.977       8.050
  H       24.971     -40.524       5.886
  H       26.779     -42.616       2.721
  H       28.445     -43.469       4.359
  H       28.433     -42.448       7.909
  H       28.567     -45.017       6.215
  H       30.214     -45.683       7.953
  H       31.477     -43.198       7.739
  H       31.917     -43.671       5.259
  H       32.376     -44.981       6.381
  P       30.457     -44.810      10.512
  C       30.013     -46.916      11.956
  O       29.779     -46.254      10.718
  O       30.449     -43.961      11.745
  O       31.955     -45.151      10.058
  H       32.536     -45.179      10.841
  H       29.507     -47.859      11.958
  H       29.644     -46.312      12.759
  H       31.064     -47.075      12.083

 6  7  8  9  10  11  12  13  14  15  16  27  31  32  33  34  35 0
 6-311+G(2d,p)
 ****
 36  37 0
 6-311+G(2d,p)
 ****
 1  2  3  4  5  17  18  19  20  21  22  23  24  25 0
 3-21G
 ****
 26  28  29  30  38  39  40  41  42  43  44  45 0
 3-21G
 ****


