%nproc=1
%NoSave
%Mem=1900MB
#P OB98/GEN NMR

erre ene a

0 1
  C       81.102     120.846     165.314
  O       81.218     119.520     165.810
  P       82.609     118.755     165.555
  C       83.881     119.575     167.661
  O       83.733     119.664     166.249
  C       85.175     118.856     168.020
  O       85.056     117.455     167.710
  C       86.399     119.337     167.257
  O       86.942     120.523     167.819
  C       87.345     118.161     167.445
  O       87.986     118.255     168.731
  C       86.385     116.959     167.412
  N       87.846     112.848     164.845
  C       88.063     113.190     166.165
  N       88.744     112.296     166.914
  N       87.652     114.309     166.701
  C       86.951     115.086     165.844
  C       86.672     114.858     164.515
  C       87.177     113.639     163.920
  O       87.072     113.313     162.742
  N       85.921     115.873     163.981
  C       85.714     116.694     164.990
  N       86.345     116.277     166.135
  O       82.864     118.982     163.992
  O       82.611     117.310     165.915
  H       87.329     117.983     169.399
  H       83.431     118.267     163.641
  H       88.170     111.966     164.488
  H       85.120     117.596     164.935
  H       86.635     116.228     168.191
  H       88.139     118.126     166.693
  H       88.970     111.368     166.594
  H       86.177     119.463     166.192
  H       88.881     112.513     167.892
  H       85.332     118.952     169.102
  H       83.037     119.016     168.078
  H       83.873     120.586     168.082
  P       88.030     121.306     166.932
  C       86.179     122.943     166.128
  O       87.189     122.019     165.770
  O       88.807     120.127     166.183
  O       88.948     122.180     167.718
  H       89.711     120.415     165.949
  H       86.465     123.527     167.008
  H       85.251     122.403     166.334
  H       86.015     123.627     165.292
  H       80.133     121.232     165.552
  H       81.234     120.842     164.252
  H       81.852     121.462     165.764

 3  4  5  6  7  8  9  10  11  12  23  26  30  31  33  0
 6-311+G(2d,p)
 ****
 35  36  37  38 0
 6-311+G(2d,p)
 ****
 1  2  13  14  15  16  17  18  19  20  21  22  24  25  27  28  29 0
 3-21G
 ****
 32  34  39  40  41  42  43  44  45  46  47  48  49 0
 3-21G
 ****


