%nproc=1
%NoSave
%Mem=1900MB
#P OB98/GEN NMR

erre ene a

0 1
  C     -242.038    -237.308      63.667
  O     -241.571    -237.774      62.397
  P     -239.987    -237.747      62.157
  C     -240.033    -239.781      60.544
  O     -239.682    -238.417      60.732
  C     -240.504    -240.008      59.108
  O     -241.869    -239.573      58.916
  C     -239.690    -239.236      58.074
  O     -238.426    -239.844      57.865
  C     -240.627    -239.293      56.874
  O     -240.528    -240.569      56.217
  C     -242.007    -239.159      57.536
  N     -244.118    -235.598      54.529
  C     -243.696    -236.856      54.278
  N     -243.143    -237.741      55.134
  C     -243.052    -237.217      56.367
  C     -243.447    -235.952      56.776
  C     -244.002    -235.119      55.788
  N     -244.421    -233.831      56.043
  N     -243.194    -235.775      58.121
  C     -242.636    -236.905      58.510
  N     -242.540    -237.810      57.490
  O     -239.433    -238.820      63.208
  O     -239.373    -236.401      62.369
  H     -240.644    -241.260      56.902
  H     -238.971    -238.365      63.937
  H     -243.815    -237.196      53.254
  H     -242.287    -237.108      59.515
  H     -242.754    -239.815      57.074
  H     -240.414    -238.524      56.128
  H     -239.557    -238.196      58.397
  H     -240.449    -241.084      58.895
  H     -240.822    -240.071      61.241
  H     -244.732    -233.274      55.267
  H     -244.256    -233.437      56.959
  H     -239.163    -240.404      60.776
  P     -237.221    -238.905      57.376
  C     -235.523    -239.719      59.122
  O     -235.905    -239.747      57.761
  O     -237.237    -237.752      58.480
  O     -237.310    -238.455      55.957
  H     -237.319    -238.118      59.380
  H     -234.643    -240.354      59.252
  H     -236.334    -240.102      59.749
  H     -235.272    -238.696      59.422
  H     -243.105    -237.376      63.702
  H     -241.741    -236.289      63.804
  H     -241.617    -237.910      64.445

 3  4  5  6  7  8  9  10  11  12  22  25  29  30  31  32 0
 6-311+G(2d,p)
 ****
 33  36  37 0
 6-311+G(2d,p)
 ****
 1  2  13  14  15  16  17  18  19  20  21  23  24  26 0
 3-21G
 ****
 27  28  34  35  38  39  40  41  42  43  44  45  46  47  48 0
 3-21G
 ****


