%nproc=1
%NoSave
%Mem=1900MB
#P OB98/GEN NMR

erre ene a

0 1
  C       26.951      72.032     -64.572
  O       25.903      71.798     -65.497
  P       25.481      72.915     -66.559
  C       24.327      72.887     -68.916
  O       24.998      72.186     -67.893
  C       23.472      71.897     -69.718
  O       24.307      71.118     -70.599
  C       22.724      70.931     -68.801
  O       21.414      71.406     -68.537
  C       22.751      69.637     -69.591
  O       21.712      69.633     -70.587
  C       24.141      69.714     -70.267
  N       25.318      69.287     -69.487
  C       25.766      67.973     -69.580
  O       25.254      67.127     -70.307
  N       26.828      67.648     -68.774
  C       27.490      68.505     -67.944
  O       28.266      68.156     -67.062
  C       27.148      69.922     -68.096
  C       26.082      70.241     -68.829
  O       26.883      73.562     -66.978
  O       24.517      73.942     -66.063
  H       20.935      70.069     -70.192
  H       27.038      74.392     -66.491
  H       27.068      66.663     -68.732
  H       27.741      70.654     -67.563
  H       25.786      71.282     -68.924
  H       24.152      69.147     -71.204
  H       22.560      68.779     -68.949
  H       23.283      70.784     -67.868
  H       22.763      72.461     -70.336
  H       25.053      73.381     -69.571
  H       23.695      73.669     -68.484
  P       20.613      70.850     -67.269
  C       19.039      71.881     -65.528
  O       19.842      72.121     -66.667
  O       21.421      70.067     -66.288
  O       19.453      69.962     -67.928
  H       19.714      69.019     -67.922
  H       18.720      72.840     -65.115
  H       19.605      71.335     -64.767
  H       18.154      71.308     -65.815
  H       27.079      71.169     -63.952
  H       26.707      72.877     -63.962
  H       27.859      72.227     -65.104

 3  4  5  6  7  8  9  10  11  12  13  23  28  29  30  31  32 0
 6-311+G(2d,p)
 ****
 33  34 0
 6-311+G(2d,p)
 ****
 1  2  14  15  16  17  18  19  20  21  22  24  25  26  27 0
 3-21G
 ****
 35  36  37  38  39  40  41  42  43  44  45 0
 3-21G
 ****


