%nproc=1
%NoSave
%Mem=1900MB
#P OB98/GEN NMR

erre ene a

0 1
  C      119.464      71.990    -188.603
  O      120.538      71.304    -187.994
  H      119.845      72.535    -189.470
  H      119.018      72.707    -187.908
  H      118.706      71.281    -188.945
  P      120.259      70.517    -186.623
  C      122.365      69.021    -186.825
  O      121.720      70.071    -186.120
  C      123.713      68.704    -186.183
  O      124.663      69.762    -186.424
  C      123.680      68.551    -184.666
  O      123.098      67.333    -184.234
  C      125.167      68.625    -184.361
  O      125.793      67.376    -184.708
  C      125.615      69.754    -185.323
  N      125.666      71.065    -184.680
  C      126.819      71.357    -183.942
  O      127.730      70.536    -183.854
  N      126.899      72.563    -183.288
  C      125.906      73.394    -183.348
  N      126.016      74.555    -182.643
  C      124.680      73.135    -184.128
  C      124.624      71.963    -184.757
  O      119.241      69.424    -186.683
  O      119.896      71.667    -185.571
  H      125.517      66.724    -184.039
  H      119.702      71.229    -184.706
  H      123.879      73.859    -184.138
  H      123.748      71.692    -185.336
  H      126.599      69.531    -185.751
  H      125.384      68.816    -183.307
  H      123.185      69.408    -184.198
  H      124.107      67.803    -186.670
  H      126.851      74.680    -182.087
  H      122.489      69.336    -187.866
  H      125.200      75.112    -182.414
  H      121.749      68.117    -186.799
  P      122.627      67.227    -182.701
  C      120.177      66.510    -183.220
  O      121.432      66.158    -182.660
  O      121.894      68.625    -182.457
  O      123.714      66.965    -181.706
  H      122.507      69.282    -182.072
  H      119.496      65.692    -183.111
  H      120.301      66.736    -184.259
  H      119.788      67.368    -182.712

 6  7  8  9  10  11  12  13  14  15  16  26  30  31  32  33  35 0
 6-311+G(2d,p)
 ****
 37  38 0
 6-311+G(2d,p)
 ****
 1  2  3  4  5  17  18  19  20  21  22  23  24  25 0
 3-21G
 ****
 27  28  29  34  36  39  40  41  42  43  44  45  46 0
 3-21G
 ****


