%nproc=1
%NoSave
%Mem=1900MB
#P OB98/GEN NMR

erre ene a

0 1
  C     -121.955     192.931     266.225
  O     -123.223     192.277     266.128
  P     -124.007     192.277     264.734
  C     -122.848     190.639     263.103
  O     -123.886     190.831     264.058
  C     -123.244     189.545     262.107
  O     -122.250     189.389     261.068
  C     -123.350     188.168     262.752
  O     -124.422     187.964     263.647
  C     -123.258     187.242     261.551
  O     -124.524     187.093     260.905
  C     -122.272     188.009     260.639
  N     -120.928     187.430     260.651
  C     -120.851     186.060     260.415
  O     -121.837     185.349     260.250
  N     -119.590     185.527     260.415
  C     -118.430     186.206     260.653
  O     -117.328     185.672     260.662
  C     -118.578     187.645     260.920
  C     -119.799     188.183     260.907
  O     -123.721     193.428     263.830
  O     -125.548     192.308     265.197
  H     -124.883     187.988     260.758
  H     -126.027     192.916     264.601
  H     -119.512     184.535     260.236
  H     -117.680     188.213     261.120
  H     -119.929     189.243     261.100
  H     -122.627     188.007     259.603
  H     -122.926     186.240     261.838
  H     -122.438     188.007     263.344
  H     -124.182     189.834     261.629
  H     -121.922     190.370     263.615
  H     -122.654     191.589     262.593
  P     -124.220     187.716     265.219
  C     -122.883     189.567     266.449
  O     -124.132     189.144     265.948
  O     -123.234     186.677     265.628
  O     -125.691     187.222     265.650
  H     -125.597     186.580     266.377
  H     -123.010     190.543     266.923
  H     -122.159     189.666     265.636
  H     -122.511     188.860     267.196
  H     -121.578     192.832     267.221
  H     -122.070     193.968     265.988
  H     -121.269     192.482     265.538

 3  4  5  6  7  8  9  10  11  12  13  23  28  29  30  31  32 0
 6-311+G(2d,p)
 ****
 33  34 0
 6-311+G(2d,p)
 ****
 1  2  14  15  16  17  18  19  20  21  22  24  25  26  27 0
 3-21G
 ****
 35  36  37  38  39  40  41  42  43  44  45 0
 3-21G
 ****


