%nproc=1
%NoSave
%Mem=1900MB
#P OB98/GEN NMR

erre ene a

0 1
  C     -370.050    -313.565     425.634
  O     -368.745    -314.089     425.507
  H     -370.767    -314.352     425.407
  H     -370.204    -312.736     424.933
  H     -370.223    -313.222     426.660
  P     -367.493    -313.109     425.725
  C     -365.957    -314.095     423.898
  O     -366.185    -313.925     425.294
  C     -364.608    -314.776     423.656
  O     -363.581    -313.937     424.244
  C     -364.525    -316.166     424.311
  O     -364.127    -317.194     423.404
  C     -363.646    -315.922     425.539
  O     -362.936    -317.065     425.991
  C     -362.753    -314.754     425.102
  N     -362.226    -313.970     426.206
  C     -360.973    -314.322     426.707
  O     -360.273    -315.239     426.278
  N     -360.521    -313.566     427.760
  C     -361.177    -312.524     428.348
  O     -360.716    -311.889     429.284
  C     -362.505    -312.211     427.789
  C     -362.961    -312.930     426.766
  O     -367.410    -312.454     427.069
  O     -367.642    -312.019     424.555
  H     -362.210    -317.232     425.364
  H     -368.004    -311.193     424.922
  H     -359.614    -313.817     428.129
  H     -363.055    -311.398     428.241
  H     -363.928    -312.723     426.330
  H     -361.904    -315.109     424.513
  H     -364.287    -315.602     426.365
  H     -365.517    -316.504     424.651
  H     -364.426    -314.825     422.581
  H     -365.976    -313.102     423.434
  H     -366.764    -314.711     423.470
  P     -365.119    -318.229     422.699
  C     -363.157    -319.956     422.892
  O     -364.248    -319.452     422.141
  O     -366.125    -317.624     421.775
  O     -365.925    -318.869     423.951
  H     -366.823    -319.067     423.622
  H     -362.702    -320.765     422.360
  H     -363.508    -320.305     423.841
  H     -362.438    -319.178     423.042

 6  7  8  9  10  11  12  13  14  15  16  26  31  32  33  34  35 0
 6-311+G(2d,p)
 ****
 36  37 0
 6-311+G(2d,p)
 ****
 1  2  3  4  5  17  18  19  20  21  22  23  24  25 0
 3-21G
 ****
 27  28  29  30  38  39  40  41  42  43  44  45 0
 3-21G
 ****


