%nproc=1
%NoSave
%Mem=1900MB
#P OB98/GEN NMR

erre ene a

0 1
  C      -85.086    -640.195    -657.597
  O      -83.922    -639.942    -658.367
  H      -85.262    -641.273    -657.570
  H      -85.960    -639.714    -658.044
  H      -84.948    -639.834    -656.574
  P      -83.542    -638.417    -658.685
  C      -84.094    -638.493    -661.215
  O      -83.076    -638.402    -660.222
  C      -83.668    -637.739    -662.472
  O      -83.472    -636.337    -662.176
  C      -82.342    -638.223    -663.049
  O      -82.504    -639.450    -663.721
  C      -81.948    -637.041    -663.903
  O      -82.638    -637.061    -665.158
  C      -82.414    -635.848    -663.029
  N      -81.327    -635.281    -662.246
  C      -80.150    -634.988    -662.960
  O      -80.074    -635.221    -664.162
  N      -79.081    -634.470    -662.254
  C      -79.187    -634.230    -660.989
  N      -78.092    -633.720    -660.363
  C      -80.415    -634.512    -660.203
  C      -81.431    -635.026    -660.893
  O      -82.587    -637.745    -657.745
  O      -84.963    -637.676    -658.729
  H      -82.277    -636.302    -665.677
  H      -85.205    -637.349    -657.842
  H      -80.454    -634.291    -659.147
  H      -82.364    -635.254    -660.398
  H      -82.842    -635.061    -663.656
  H      -80.880    -637.038    -664.119
  H      -81.594    -638.323    -662.242
  H      -84.470    -637.823    -663.211
  H      -77.270    -633.561    -660.923
  H      -84.997    -638.041    -660.791
  H      -78.081    -633.424    -659.399
  H      -84.308    -639.534    -661.458
  P      -81.501    -640.678    -663.464
  C      -81.699    -641.132    -666.001
  O      -81.736    -641.693    -664.690
  O      -81.567    -641.290    -662.104
  O      -80.064    -640.044    -663.812
  H      -79.761    -639.430    -663.085
  H      -81.868    -641.903    -666.724
  H      -80.741    -640.687    -666.172
  H      -82.460    -640.386    -666.091

 6  7  8  9  10  11  12  13  14  15  16  26  30  31  32  33  35 0
 6-311+G(2d,p)
 ****
 37  38 0
 6-311+G(2d,p)
 ****
 1  2  3  4  5  17  18  19  20  21  22  23  24  25 0
 3-21G
 ****
 27  28  29  34  36  39  40  41  42  43  44  45  46 0
 3-21G
 ****


