%nproc=1
%NoSave
%Mem=1900MB
#P OB98/GEN NMR

erre ene a

0 1
  C      -99.564     -11.096     -29.033
  O      -99.460     -10.758     -30.403
  P     -100.415      -9.649     -31.047
  C      -99.147      -9.988     -33.246
  O     -100.427      -9.885     -32.636
  C      -99.243      -9.844     -34.764
  O      -99.800     -11.065     -35.322
  C     -100.122      -8.679     -35.243
  O      -99.532      -8.188     -36.451
  C     -101.440      -9.365     -35.563
  O     -102.256      -8.609     -36.449
  C     -100.929     -10.682     -36.135
  N     -104.604     -13.038     -38.793
  C     -103.816     -11.985     -39.090
  N     -102.878     -11.399     -38.318
  C     -102.790     -12.014     -37.128
  C     -103.549     -13.080     -36.671
  C     -104.487     -13.614     -37.572
  N     -105.274     -14.710     -37.298
  N     -103.204     -13.392     -35.369
  C     -102.258     -12.533     -35.052
  N     -101.931     -11.724     -36.105
  O     -100.133      -8.245     -30.630
  O     -101.885     -10.100     -30.603
  H     -102.482      -7.765     -36.017
  H     -102.216      -9.505     -29.902
  H     -103.952     -11.558     -40.080
  H     -101.781     -12.452     -34.086
  H     -100.582     -10.576     -37.170
  H     -102.004      -9.524     -34.637
  H     -100.232      -7.875     -34.511
  H      -98.225      -9.743     -35.162
  H      -98.735     -10.972     -33.003
  H     -105.814     -15.089     -38.061
  H     -105.024     -15.311     -36.516
  H      -98.478      -9.223     -32.836
  P      -98.850      -6.738     -36.475
  C      -96.659      -7.328     -37.657
  O      -97.919      -6.693     -37.775
  O      -98.194      -6.319     -35.201
  O     -100.063      -5.763     -36.864
  H      -99.827      -4.843     -36.635
  H      -95.962      -6.660     -37.144
  H      -96.275      -7.544     -38.657
  H      -96.741      -8.264     -37.098
  H      -98.845     -11.852     -28.797
  H     -100.548     -11.464     -28.830
  H      -99.378     -10.228     -28.436

 3  4  5  6  7  8  9  10  11  12  22  25  29  30  31  32 0
 6-311+G(2d,p)
 ****
 33  36  37 0
 6-311+G(2d,p)
 ****
 1  2  13  14  15  16  17  18  19  20  21  23  24  26 0
 3-21G
 ****
 27  28  34  35  38  39  40  41  42  43  44  45  46  47  48 0
 3-21G
 ****


