%nproc=1
%NoSave
%Mem=1900MB
#P OB98/GEN NMR

erre ene a

0 1
  C     -897.478     439.932    -666.320
  O     -898.568     440.045    -667.207
  H     -897.848     439.943    -665.292
  H     -896.798     440.787    -666.450
  H     -896.928     439.000    -666.492
  P     -898.258     439.900    -668.777
  C     -896.708     441.988    -668.744
  O     -897.858     441.363    -669.302
  C     -896.268     443.167    -669.607
  O     -895.778     442.663    -670.880
  C     -897.388     444.170    -669.903
  O     -896.838     445.503    -669.877
  C     -897.808     443.826    -671.321
  O     -898.408     444.936    -671.995
  C     -896.488     443.330    -671.931
  N     -896.728     442.456    -673.074
  C     -896.808     443.069    -674.320
  O     -896.698     444.292    -674.435
  N     -897.078     442.300    -675.425
  C     -897.338     441.029    -675.281
  N     -897.628     440.322    -676.408
  C     -897.328     440.352    -673.965
  C     -897.008     441.112    -672.914
  O     -899.718     439.675    -669.418
  O     -897.298     438.819    -669.141
  H     -897.738     445.646    -672.064
  H     -899.658     439.104    -670.209
  H     -897.568     439.296    -673.898
  H     -896.998     440.709    -671.915
  H     -895.888     444.180    -672.264
  H     -898.558     443.013    -671.285
  H     -898.218     444.118    -669.192
  H     -895.418     443.662    -669.118
  H     -897.628     440.819    -677.294
  H     -895.898     441.256    -668.694
  H     -897.868     439.349    -676.400
  H     -896.948     442.321    -667.725
  P     -897.338     446.462    -668.710
  C     -899.268     447.455    -670.134
  O     -898.088     447.713    -669.382
  O     -895.988     447.098    -668.128
  O     -898.108     445.753    -667.632
  H     -895.778     446.720    -667.260
  H     -899.654     448.376    -670.518
  H     -900.000     446.997    -669.503
  H     -899.036     446.799    -670.947

 6  7  8  9  10  11  12  13  14  15  16  26  30  31  32  33  35 0
 6-311+G(2d,p)
 ****
 37  38 0
 6-311+G(2d,p)
 ****
 1  2  3  4  5  17  18  19  20  21  22  23  24  25 0
 3-21G
 ****
 27  28  29  34  36  39  40  41  42  43  44  45  46 0
 3-21G
 ****


