%nproc=1
%NoSave
%Mem=1900MB
#P OB98/GEN NMR

erre ene a

0 1
  C     -183.922      41.421      17.919
  O     -184.592      41.199      16.690
  P     -184.728      42.440      15.681
  C     -185.064      40.652      13.822
  O     -185.491      41.886      14.383
  C     -185.409      40.602      12.337
  O     -184.889      41.759      11.651
  C     -184.823      39.404      11.600
  O     -185.593      38.228      11.783
  C     -184.909      39.877      10.159
  O     -186.249      39.699       9.662
  C     -184.583      41.370      10.290
  N     -181.025      41.378       6.694
  C     -182.389      41.194       6.586
  N     -182.862      40.914       5.353
  N     -183.216      41.280       7.594
  C     -182.599      41.557       8.770
  C     -181.258      41.763       9.001
  C     -180.354      41.653       7.878
  O     -179.133      41.753       7.919
  N     -181.014      42.029      10.321
  C     -182.202      41.989      10.891
  N     -183.190      41.663      10.000
  O     -183.232      42.659      15.160
  O     -185.300      43.676      16.287
  H     -186.256      40.046       8.748
  H     -183.144      43.545      14.759
  H     -180.429      41.296       5.887
  H     -182.391      42.170      11.941
  H     -185.202      41.983       9.628
  H     -184.245      39.323       9.489
  H     -182.270      40.773       4.547
  H     -183.771      39.247      11.869
  H     -183.850      40.712       5.255
  H     -186.503      40.614      12.241
  H     -185.560      39.829      14.341
  H     -183.984      40.547      13.964
  P     -184.806      36.918      12.276
  C     -187.046      36.486      13.519
  O     -185.934      35.932      12.842
  O     -184.045      37.427      13.587
  O     -183.872      36.342      11.265
  H     -183.243      36.895      13.744
  H     -187.825      35.722      13.595
  H     -187.450      37.343      12.975
  H     -186.753      36.792      14.526
  H     -183.907      40.514      18.486
  H     -184.435      42.179      18.473
  H     -182.918      41.738      17.726

 3  4  5  6  7  8  9  10  11  12  23  26  30  31 0
 6-311+G(2d,p)
 ****
 33  35  36  37  38 0
 6-311+G(2d,p)
 ****
 1  2  13  14  15  16  17  18  19  20  21  22  24  25 0
 3-21G
 ****
 27  28  29  32  34  39  40  41  42  43  44  45  46  47  48  49 0
 3-21G
 ****


