%nproc=1
%NoSave
%Mem=1900MB
#P OB98/GEN NMR

erre ene a

0 1
  C     -110.510     165.984    -107.942
  O     -109.722     164.926    -107.430
  P     -108.148     164.896    -107.712
  C     -108.230     163.546    -105.526
  O     -107.493     163.827    -106.712
  C     -107.839     162.178    -104.971
  O     -106.404     162.031    -104.962
  C     -108.285     161.942    -103.533
  O     -109.667     161.651    -103.474
  C     -107.372     160.791    -103.128
  O     -107.898     159.539    -103.596
  C     -106.074     161.140    -103.872
  N     -102.958     160.383     -99.906
  C     -103.941     159.625    -100.436
  N     -104.757     159.915    -101.473
  C     -104.489     161.139    -101.954
  C     -103.541     162.041    -101.495
  C     -102.731     161.611    -100.431
  N     -101.685     162.349     -99.922
  N     -103.593     163.211    -102.230
  C     -104.557     163.019    -103.106
  N     -105.081     161.760    -103.019
  O     -107.477     166.229    -107.740
  O     -108.031     164.173    -109.135
  H     -108.709     159.355    -103.086
  H     -107.608     164.781    -109.772
  H     -104.088     158.654     -99.972
  H     -104.898     163.749    -103.829
  H     -105.611     160.253    -104.319
  H     -107.254     160.710    -102.044
  H     -108.048     162.820    -102.922
  H     -108.254     161.408    -105.636
  H     -109.296     163.554    -105.775
  H     -101.080     161.888     -99.261
  H     -101.313     163.110    -100.486
  H     -108.035     164.326    -104.784
  P     -110.510     162.047    -102.172
  C     -112.588     162.564    -103.583
  O     -112.054     161.797    -102.522
  O     -110.197     163.381    -101.581
  O     -110.185     160.864    -101.141
  H     -110.202     161.214    -100.231
  H     -112.798     163.578    -103.233
  H     -113.520     162.102    -103.916
  H     -111.890     162.604    -104.425
  H     -111.531     165.839    -107.656
  H     -110.437     165.999    -109.009
  H     -110.158     166.914    -107.548

 3  4  5  6  7  8  9  10  11  12  22  25  29  30  31  32 0
 6-311+G(2d,p)
 ****
 33  36  37 0
 6-311+G(2d,p)
 ****
 1  2  13  14  15  16  17  18  19  20  21  23  24  26 0
 3-21G
 ****
 27  28  34  35  38  39  40  41  42  43  44  45  46  47  48 0
 3-21G
 ****


