%nproc=1
%NoSave
%Mem=1900MB
#P OB98/GEN NMR

erre ene a

0 1
  C       -1.404       5.667     -13.973
  O       -2.640       5.106     -14.357
  H       -1.021       6.266     -14.803
  H       -0.690       4.868     -13.757
  H       -1.512       6.310     -13.096
  P       -3.624       4.560     -13.219
  C       -4.903       5.633     -11.252
  O       -3.768       5.707     -12.105
  C       -4.695       6.413      -9.954
  O       -3.581       5.865      -9.216
  C       -4.352       7.881     -10.208
  O       -5.462       8.735     -10.417
  C       -3.608       8.253      -8.929
  O       -4.529       8.641      -7.895
  C       -2.902       6.948      -8.556
  N        1.919       7.716      -7.055
  C        0.748       7.915      -6.351
  N        0.878       8.439      -5.113
  N       -0.436       7.641      -6.831
  C       -0.416       7.213      -8.115
  C        0.680       6.991      -8.918
  C        1.991       7.246      -8.358
  O        3.060       7.094      -8.942
  N        0.309       6.552     -10.166
  C       -1.008       6.582     -10.141
  N       -1.495       6.951      -8.909
  O       -2.745       3.453     -12.462
  O       -4.913       3.980     -13.712
  H       -5.048       9.400      -8.217
  H       -3.328       2.789     -12.053
  H        2.805       7.919      -6.626
  H       -1.653       6.322     -10.973
  H       -2.963       6.753      -7.478
  H       -2.933       9.100      -9.085
  H        1.756       8.774      -4.748
  H       -3.656       7.970     -11.048
  H        0.047       8.843      -4.677
  H       -5.585       6.308      -9.323
  H       -5.060       4.575     -11.031
  H       -5.794       5.990     -11.775
  P       -5.283      10.093     -11.244
  C       -5.310      10.585     -13.799
  O       -4.993       9.680     -12.765
  O       -3.874      10.643     -10.723
  O       -6.372      11.092     -11.056
  H       -4.010      11.303     -10.017
  H       -5.053      10.152     -14.743
  H       -4.759      11.492     -13.661
  H       -6.358      10.798     -13.778

 6  7  8  9  10  11  12  13  14  15  26  29  33  34 0
 6-311+G(2d,p)
 ****
 36  38  39  40  41 0
 6-311+G(2d,p)
 ****
 1  2  3  4  5  16  17  18  19  20  21  22  23  24  25 0
 3-21G
 ****
 27  28  30  31  32  35  37  42  43  44  45  46  47 0
 3-21G
 ****
 48  49 0
 3-21G
 ****


