%nproc=1
%NoSave
%Mem=1900MB
#P OB98/GEN NMR

erre ene a

0 1
  C       59.992    -155.179      39.123
  O       59.304    -154.015      39.597
  P       57.944    -154.249      40.413
  C       56.197    -152.772      41.670
  O       57.358    -152.819      40.848
  C       55.967    -151.349      42.183
  O       56.917    -151.015      43.216
  C       56.152    -150.287      41.114
  O       55.017    -150.224      40.275
  C       56.375    -149.029      41.951
  O       55.135    -148.363      42.243
  C       57.029    -149.579      43.239
  N       58.410    -149.153      43.395
  C       58.609    -147.968      44.104
  O       57.647    -147.332      44.544
  N       59.893    -147.516      44.283
  C       60.889    -148.181      43.766
  N       62.139    -147.681      43.972
  C       60.715    -149.424      42.986
  C       59.464    -149.845      42.840
  O       58.446    -154.876      41.796
  O       56.967    -155.142      39.717
  H       54.883    -147.905      41.423
  H       57.783    -155.503      42.140
  H       61.572    -149.935      42.566
  H       59.243    -150.749      42.276
  H       56.469    -149.235      44.121
  H       57.001    -148.301      41.416
  H       57.055    -150.500      40.519
  H       54.954    -151.287      42.605
  H       62.219    -146.829      44.510
  H       56.301    -153.463      42.511
  H       62.981    -148.113      43.612
  H       55.334    -153.123      41.080
  P       55.153    -150.779      38.785
  C       53.446    -151.300      36.932
  O       53.709    -150.561      38.115
  O       55.172    -152.368      39.014
  O       56.332    -150.321      37.983
  H       55.353    -152.831      38.173
  H       52.370    -151.220      36.705
  H       53.698    -152.347      37.080
  H       54.014    -150.888      36.098
  H       60.876    -154.882      38.599
  H       59.353    -155.727      38.462
  H       60.260    -155.798      39.954

 3  4  5  6  7  8  9  10  11  12  13  21  23  27  28  29  30  32 0
 6-311+G(2d,p)
 ****
 34  35 0
 6-311+G(2d,p)
 ****
 1  2  14  15  16  17  18  19  20  22  24  25  26 0
 3-21G
 ****
 31  33  36  37  38  39  40  41  42  43  44  45  46 0
 3-21G
 ****


