%nproc=1
%NoSave
%Mem=1900MB
#P OB98/GEN NMR

erre ene a

0 1
  C      -85.082     -66.935     -21.459
  O      -86.087     -66.833     -20.470
  H      -85.514     -66.670     -22.427
  H      -84.706     -67.961     -21.510
  H      -84.261     -66.247     -21.238
  P      -85.654     -67.210     -18.971
  C      -86.972     -65.108     -18.215
  O      -86.717     -66.489     -18.006
  C      -88.388     -64.756     -17.770
  O      -89.365     -65.411     -18.608
  C      -88.712     -65.149     -16.333
  O      -88.240     -64.176     -15.417
  C      -90.232     -65.222     -16.382
  O      -90.828     -63.913     -16.273
  C      -90.480     -65.822     -17.773
  N      -93.545     -69.684     -18.855
  C      -93.726     -68.327     -19.029
  N      -94.925     -67.941     -19.517
  N      -92.821     -67.431     -18.743
  C      -91.685     -67.963     -18.234
  C      -91.379     -69.289     -18.028
  C      -92.380     -70.272     -18.380
  O      -92.257     -71.492     -18.310
  N      -90.118     -69.433     -17.512
  C      -89.677     -68.198     -17.369
  N      -90.599     -67.270     -17.778
  O      -84.317     -66.358     -18.743
  O      -85.432     -68.661     -18.715
  H      -90.526     -63.492     -15.450
  H      -83.734     -66.840     -18.126
  H      -94.274     -70.327     -19.111
  H      -88.707     -67.927     -16.978
  H      -91.393     -65.428     -18.234
  H      -90.633     -65.817     -15.560
  H      -95.745     -68.527     -19.436
  H      -88.307     -66.141     -16.101
  H      -95.074     -66.946     -19.627
  H      -88.516     -63.674     -17.909
  H      -86.864     -64.883     -19.281
  H      -86.242     -64.518     -17.651
  P      -87.971     -64.645     -13.904
  C      -85.553     -63.704     -13.721
  O      -86.906     -63.613     -13.294
  O      -87.121     -65.989     -14.080
  O      -89.203     -64.860     -13.091
  H      -87.134     -66.503     -13.250
  H      -84.972     -62.953     -13.227
  H      -85.502     -63.556     -14.779
  H      -85.166     -64.672     -13.478

 6  7  8  9  10  11  12  13  14  15  26  29  33  34 0
 6-311+G(2d,p)
 ****
 36  38  39  40  41 0
 6-311+G(2d,p)
 ****
 1  2  3  4  5  16  17  18  19  20  21  22  23  24  25 0
 3-21G
 ****
 27  28  30  31  32  35  37  42  43  44  45  46  47 0
 3-21G
 ****
 48  49 0
 3-21G
 ****


