%nproc=1
%NoSave
%Mem=1900MB
#P OB98/GEN NMR

erre ene a

0 1
  C     -183.105    -124.411    -708.624
  O     -183.628    -123.792    -709.802
  P     -183.169    -124.417    -711.218
  C     -180.999    -124.640    -712.579
  O     -181.582    -124.242    -711.365
  C     -179.944    -123.626    -713.074
  O     -180.562    -122.376    -713.475
  C     -178.878    -123.296    -712.013
  O     -177.639    -123.059    -712.703
  C     -179.374    -121.979    -711.446
  O     -178.320    -121.275    -710.786
  C     -179.954    -121.306    -712.698
  N     -180.896    -120.235    -712.400
  C     -180.470    -118.937    -712.677
  O     -179.326    -118.718    -713.070
  N     -181.345    -117.896    -712.447
  C     -182.520    -118.140    -711.944
  N     -183.338    -117.071    -711.746
  C     -182.996    -119.502    -711.596
  C     -182.122    -120.487    -711.857
  O     -183.782    -123.388    -712.289
  O     -183.689    -125.802    -711.439
  H     -178.689    -120.408    -710.467
  H     -184.279    -123.870    -712.973
  H     -183.972    -119.663    -711.171
  H     -182.376    -121.517    -711.646
  H     -179.135    -120.884    -713.317
  H     -180.171    -122.153    -710.709
  H     -178.744    -124.082    -711.264
  H     -179.443    -124.040    -713.959
  H     -182.987    -116.160    -711.991
  H     -181.772    -124.735    -713.364
  H     -184.258    -117.142    -711.356
  H     -180.560    -125.637    -712.472
  P     -176.404    -124.032    -712.381
  C     -174.422    -123.881    -710.750
  O     -175.699    -123.380    -711.078
  O     -175.366    -123.602    -713.542
  O     -176.633    -125.506    -712.368
  H     -174.574    -124.185    -713.505
  H     -174.016    -123.272    -709.922
  H     -173.746    -123.805    -711.607
  H     -174.507    -124.919    -710.399
  H     -183.482    -123.907    -707.759
  H     -182.037    -124.351    -708.634
  H     -183.405    -125.438    -708.598

 3  4  5  6  7  8  9  10  11  12  13  21  23  27  28  29  30  32 0
 6-311+G(2d,p)
 ****
 34  35 0
 6-311+G(2d,p)
 ****
 1  2  14  15  16  17  18  19  20  22  24  25  26 0
 3-21G
 ****
 31  33  36  37  38  39  40  41  42  43  44  45  46 0
 3-21G
 ****


