%nproc=1
%NoSave
%Mem=1900MB
#P OB98/GEN NMR

erre ene a

0 1
  C       92.100      51.703    -125.557
  O       92.704      52.979    -125.503
  P       92.738      53.822    -124.143
  C       90.754      55.278    -124.864
  O       91.264      54.394    -123.875
  C       89.330      55.724    -124.532
  O       88.468      54.559    -124.449
  C       89.208      56.497    -123.211
  O       88.236      57.529    -123.412
  C       88.682      55.448    -122.250
  O       88.027      56.023    -121.125
  C       87.780      54.630    -123.183
  N       87.492      53.305    -122.659
  C       86.556      53.223    -121.626
  O       86.114      54.250    -121.110
  N       86.160      51.981    -121.198
  C       86.784      50.926    -121.629
  N       86.316      49.712    -121.234
  C       87.949      50.999    -122.536
  C       88.218      52.199    -123.041
  O       93.823      54.847    -124.061
  O       92.909      52.716    -122.998
  H       93.675      52.953    -122.438
  H       87.759      55.304    -120.515
  H       88.514      50.108    -122.767
  H       89.036      52.351    -123.738
  H       86.832      55.155    -123.360
  H       89.512      54.833    -121.884
  H       90.154      56.946    -122.893
  H       88.966      56.340    -125.362
  H       85.492      49.701    -120.646
  H       90.748      54.751    -125.821
  H       86.521      48.858    -121.751
  H       91.418      56.145    -124.965
  P       88.391      58.894    -122.579
  C       86.691      58.470    -120.665
  O       88.045      58.577    -121.047
  O       87.090      59.709    -123.054
  O       89.618      59.702    -122.846
  H       87.257      60.665    -122.948
  H       86.642      58.320    -119.582
  H       86.224      57.610    -121.155
  H       86.145      59.382    -120.917
  H       92.183      51.311    -126.549
  H       91.067      51.786    -125.292
  H       92.593      51.046    -124.871

 3  4  5  6  7  8  9  10  11  12  13  24  27  28  29  30  32 0
 6-311+G(2d,p)
 ****
 34  35 0
 6-311+G(2d,p)
 ****
 1  2  14  15  16  17  18  19  20  21  22  23  25  26 0
 3-21G
 ****
 31  33  36  37  38  39  40  41  42  43  44  45  46 0
 3-21G
 ****


