%nproc=1
%NoSave
%Mem=1900MB
#P OB98/GEN NMR

erre ene a

0 1
  C     -887.170     715.707    2027.719
  O     -888.240     714.984    2027.103
  P     -889.160     715.808    2026.057
  C     -890.950     716.195    2027.927
  O     -890.140     716.780    2026.908
  C     -891.770     717.290    2028.620
  O     -892.400     718.172    2027.646
  C     -892.890     716.743    2029.466
  O     -892.420     716.187    2030.689
  C     -893.750     717.990    2029.645
  O     -893.220     718.814    2030.689
  C     -893.630     718.685    2028.270
  N     -898.670     719.299    2027.614
  C     -897.820     719.645    2028.603
  N     -896.500     719.446    2028.696
  C     -896.030     718.785    2027.625
  C     -896.770     718.314    2026.523
  C     -898.180     718.605    2026.557
  N     -899.000     718.204    2025.556
  N     -895.940     717.717    2025.640
  C     -894.730     717.741    2026.153
  N     -894.780     718.388    2027.367
  O     -890.160     714.678    2025.468
  O     -888.380     716.457    2024.922
  H     -893.830     719.569    2030.828
  H     -889.930     714.474    2024.556
  H     -898.300     720.203    2029.424
  H     -893.860     717.297    2025.746
  H     -893.550     719.744    2028.353
  H     -894.800     717.725    2029.946
  H     -893.460     715.954    2028.907
  H     -891.090     717.874    2029.244
  H     -890.320     715.666    2028.638
  H     -900.000     718.359    2025.659
  H     -898.640     717.655    2024.785
  H     -891.610     715.462    2027.427
  P     -892.260     714.582    2030.758
  C     -894.570     714.544    2031.918
  O     -893.780     714.053    2030.828
  O     -891.760     714.386    2032.270
  O     -891.410     713.939    2029.687
  H     -892.250     714.945    2032.900
  H     -895.610     714.123    2031.841
  H     -894.620     715.671    2031.894
  H     -894.160     714.214    2032.891
  H     -886.639     715.059    2028.385
  H     -887.568     716.534    2028.269
  H     -886.503     716.068    2026.965

 3  4  5  6  7  8  9  10  11  12  22  25  29  30  31  32 0
 6-311+G(2d,p)
 ****
 33  36  37 0
 6-311+G(2d,p)
 ****
 1  2  13  14  15  16  17  18  19  20  21  23  24  26 0
 3-21G
 ****
 27  28  34  35  38  39  40  41  42  43  44  45  46  47  48 0
 3-21G
 ****


