%nproc=1
%NoSave
%Mem=1900MB
#P OB98/GEN NMR

erre ene a

0 1
  C        8.759     371.267     427.078
  O        8.892     370.091     426.303
  H        9.275     371.119     428.030
  H        7.704     371.480     427.272
  H        9.220     372.112     426.555
  P        8.169     370.086     424.872
  C       10.120     368.552     424.136
  O        8.714     368.759     424.153
  C       10.443     367.070     424.341
  O        9.799     366.276     423.329
  C       11.931     366.739     424.266
  O       12.561     366.986     425.509
  C       11.878     365.243     423.960
  O       11.651     364.512     425.169
  C       10.645     365.131     423.041
  N        8.693     364.322     418.359
  C        8.197     364.087     419.590
  N        8.783     364.273     420.793
  C       10.030     364.767     420.637
  C       10.673     365.055     419.442
  C        9.950     364.815     418.260
  N       10.462     365.052     417.000
  N       11.942     365.544     419.669
  C       12.040     365.607     420.982
  N       10.925     365.115     421.614
  O        8.282     371.354     424.088
  O        6.676     369.668     425.279
  H       11.753     363.564     424.957
  H        6.694     368.977     425.965
  H        7.184     363.689     419.617
  H       12.887     366.013     421.522
  H       10.060     364.234     423.257
  H       12.805     364.875     423.520
  H       12.426     367.259     423.439
  H       10.028     366.765     425.317
  H       10.605     369.147     424.929
  H        9.963     364.672     416.217
  H       11.445     365.303     416.930
  H       10.496     368.892     423.167
  P       13.840     367.952     425.613
  C       12.936     368.581     427.943
  O       14.071     368.162     427.193
  O       13.749     369.194     424.801
  O       15.074     367.021     425.195
  H       15.842     367.580     424.966
  H       13.208     368.687     428.972
  H       12.159     367.851     427.852
  H       12.588     369.521     427.568

 6  7  8  9  10  11  12  13  14  15  25  28  32  33  34  35 0
 6-311+G(2d,p)
 ****
 36  39  40 0
 6-311+G(2d,p)
 ****
 1  2  3  4  5  16  17  18  19  20  21  22  23  24 0
 3-21G
 ****
 26  27  29  30  31  37  38  41  42  43  44  45  46  47 0
 3-21G
 ****
 48 0
 3-21G
 ****


