%nproc=1
%NoSave
%Mem=1900MB
#P OB98/GEN NMR

erre ene a

0 1
  C      149.583      -4.170     -87.487
  O      149.497      -3.792     -88.847
  H      148.589      -4.098     -87.040
  H      150.263      -3.503     -86.948
  H      149.932      -5.204     -87.408
  P      150.868      -3.796     -89.682
  C      152.975      -2.317     -89.551
  O      151.582      -2.412     -89.278
  C      153.455      -0.874     -89.382
  O      152.871      -0.069     -90.440
  C      153.050      -0.249     -88.044
  O      154.112       0.581     -87.573
  C      151.849       0.611     -88.401
  O      151.664       1.691     -87.489
  C      152.189       1.040     -89.829
  N      148.772       4.719     -90.743
  C      149.930       4.715     -90.048
  N      150.794       3.689     -89.870
  C      150.378       2.597     -90.537
  C      149.220       2.450     -91.281
  C      148.387       3.581     -91.372
  N      147.192       3.589     -92.054
  N      149.122       1.165     -91.777
  C      150.210       0.548     -91.348
  N      150.990       1.370     -90.581
  O      150.734      -4.041     -91.148
  O      151.732      -4.877     -88.880
  H      152.510       2.181     -87.415
  H      151.652      -4.756     -87.916
  H      150.199       5.653     -89.569
  H      150.469      -0.487     -91.554
  H      152.846       1.918     -89.860
  H      150.941      -0.002     -88.386
  H      152.805      -0.998     -87.291
  H      154.541      -0.846     -89.526
  H      153.185      -2.656     -90.572
  H      146.664       4.447     -92.078
  H      146.897       2.753     -92.543
  H      153.502      -2.976     -88.851
  P      155.128      -0.019     -86.487
  C      155.278      -0.229     -83.918
  O      154.460       0.113     -85.034
  O      156.541       0.446     -86.590
  O      155.031      -1.598     -86.762
  H      155.915      -1.996     -86.645
  H      154.720      -0.100     -83.014
  H      156.139       0.405     -83.900
  H      155.588      -1.250     -84.003

 6  7  8  9  10  11  12  13  14  15  25  28  32  33  34  35 0
 6-311+G(2d,p)
 ****
 36  39  40 0
 6-311+G(2d,p)
 ****
 1  2  3  4  5  16  17  18  19  20  21  22  23  24 0
 3-21G
 ****
 26  27  29  30  31  37  38  41  42  43  44  45  46  47 0
 3-21G
 ****
 48 0
 3-21G
 ****


