%nproc=1
%NoSave
%Mem=1900MB
#P OB98/GEN NMR

erre ene a

0 1
  C     -343.497    -899.220    -307.032
  O     -343.769    -900.177    -308.044
  P     -345.290    -900.367    -308.510
  C     -344.523    -901.839    -310.556
  O     -345.322    -901.708    -309.367
  C     -344.268    -903.321    -310.853
  O     -343.249    -903.830    -309.967
  C     -345.468    -904.221    -310.666
  O     -346.379    -904.138    -311.747
  C     -344.785    -905.599    -310.530
  O     -344.445    -906.112    -311.826
  C     -343.511    -905.235    -309.750
  N     -343.599    -905.535    -308.315
  C     -343.811    -906.867    -307.974
  O     -343.923    -907.766    -308.808
  N     -343.918    -907.130    -306.632
  C     -343.903    -906.200    -305.626
  O     -344.045    -906.484    -304.438
  C     -343.721    -904.809    -306.048
  C     -343.575    -904.545    -307.359
  O     -345.428    -899.183    -309.569
  O     -346.251    -900.311    -307.356
  H     -344.570    -898.965    -309.977
  H     -343.940    -906.930    -311.680
  H     -344.057    -908.097    -306.361
  H     -343.708    -904.049    -305.278
  H     -343.440    -903.516    -307.677
  H     -342.647    -905.768    -310.153
  H     -345.418    -906.339    -310.040
  H     -345.980    -903.990    -309.727
  H     -343.878    -903.401    -311.883
  H     -343.590    -901.325    -310.411
  H     -345.069    -901.369    -311.393
  P     -347.878    -904.679    -311.467
  C     -349.058    -903.670    -313.575
  O     -348.578    -904.813    -312.898
  O     -348.556    -903.382    -310.811
  O     -347.918    -905.903    -310.617
  H     -348.324    -902.559    -311.263
  H     -349.166    -903.900    -314.635
  H     -348.362    -902.827    -313.469
  H     -350.041    -903.391    -313.173
  H     -342.447    -899.206    -306.828
  H     -344.030    -899.481    -306.142
  H     -343.809    -898.252    -307.364

 3  4  5  6  7  8  9  10  11  12  13  24  28  29  30  31  32 0
 6-311+G(2d,p)
 ****
 33  34 0
 6-311+G(2d,p)
 ****
 1  2  14  15  16  17  18  19  20  21  22  23  25  26  27 0
 3-21G
 ****
 35  36  37  38  39  40  41  42  43  44  45 0
 3-21G
 ****


