%nproc=1
%NoSave
%Mem=1900MB
#P OB98/GEN NMR

erre ene a

0 1
  C      -82.482     -86.234     111.049
  O      -81.560     -86.890     110.203
  H      -82.161     -85.196     111.173
  H      -82.504     -86.710     112.031
  H      -83.481     -86.240     110.607
  P      -81.804     -88.439     109.862
  C      -83.513     -87.766     108.035
  O      -83.288     -88.475     109.243
  C      -84.218     -88.661     107.021
  O      -85.463     -89.170     107.547
  C      -84.609     -87.972     105.719
  O      -83.514     -87.711     104.859
  C      -85.559     -89.009     105.148
  O      -84.806     -90.114     104.619
  C      -86.344     -89.419     106.415
  N      -87.595     -88.679     106.566
  C      -88.624     -88.998     105.673
  O      -88.460     -89.854     104.806
  N      -89.813     -88.313     105.759
  C      -89.952     -87.375     106.644
  N      -91.148     -86.725     106.680
  C      -88.889     -86.993     107.591
  C      -87.752     -87.677     107.500
  O      -81.548     -89.403     110.974
  O      -80.909     -88.710     108.564
  H      -85.444     -90.825     104.427
  H      -81.015     -89.660     108.316
  H      -89.045     -86.184     108.289
  H      -86.920     -87.450     108.158
  H      -86.566     -90.493     106.407
  H      -86.181     -88.624     104.338
  H      -85.175     -87.054     105.917
  H      -83.568     -89.527     106.839
  H      -91.858     -87.008     106.018
  H      -82.546     -87.426     107.653
  H      -91.318     -85.932     107.283
  H      -84.147     -86.894     108.225
  P      -83.816     -86.848     103.536
  C      -83.021     -84.637     104.674
  O      -84.066     -85.346     104.028
  O      -85.262     -87.362     103.092
  O      -82.799     -86.978     102.446
  H      -85.190     -88.027     102.380
  H      -83.362     -83.656     104.932
  H      -82.181     -84.561     104.015
  H      -82.732     -85.159     105.562

 6  7  8  9  10  11  12  13  14  15  16  26  30  31  32  33  35 0
 6-311+G(2d,p)
 ****
 37  38 0
 6-311+G(2d,p)
 ****
 1  2  3  4  5  17  18  19  20  21  22  23  24  25 0
 3-21G
 ****
 27  28  29  34  36  39  40  41  42  43  44  45  46 0
 3-21G
 ****


