%nproc=1
%NoSave
%Mem=1900MB
#P OB98/GEN NMR

erre ene a

0 1
  C      155.677     282.849      35.387
  O      156.279     282.607      34.131
  H      154.840     283.540      35.250
  H      156.399     283.301      36.074
  H      155.299     281.915      35.810
  P      157.600     281.692      34.140
  C      158.607     283.671      32.770
  O      158.461     282.267      32.911
  C      159.072     284.002      31.356
  O      159.181     285.431      31.176
  C      160.448     283.441      31.005
  O      160.416     282.062      30.681
  C      160.791     284.299      29.801
  O      160.055     283.837      28.654
  C      160.285     285.684      30.265
  N      161.320     286.484      30.922
  C      162.174     287.214      30.087
  O      162.050     287.162      28.864
  N      163.176     287.963      30.657
  C      163.308     287.993      31.948
  N      164.326     288.740      32.457
  C      162.421     287.254      32.863
  C      161.462     286.529      32.292
  O      157.087     280.283      33.576
  O      158.331     281.607      35.437
  H      160.200     284.489      27.944
  H      157.857     279.684      33.424
  H      162.578     287.300      33.933
  H      160.773     285.955      32.905
  H      159.884     286.259      29.420
  H      161.851     284.264      29.540
  H      161.178     283.641      31.798
  H      158.305     283.642      30.655
  H      164.955     289.185      31.802
  H      159.345     284.019      33.503
  H      164.615     288.678      33.425
  H      157.653     284.169      32.964
  P      161.208     281.052      31.647
  C      163.132     280.643      29.950
  O      162.069     280.079      30.706
  O      160.048     280.098      32.198
  O      161.970     281.706      32.759
  H      160.189     279.876      33.137
  H      163.608     279.875      29.377
  H      163.845     281.087      30.613
  H      162.743     281.391      29.291

 6  7  8  9  10  11  12  13  14  15  16  26  30  31  32  33  35 0
 6-311+G(2d,p)
 ****
 37  38 0
 6-311+G(2d,p)
 ****
 1  2  3  4  5  17  18  19  20  21  22  23  24  25 0
 3-21G
 ****
 27  28  29  34  36  39  40  41  42  43  44  45  46 0
 3-21G
 ****


