%nproc=1
%NoSave
%Mem=1900MB
#P OB98/GEN NMR

erre ene a

0 1
  C       22.689     631.015      52.791
  O       21.759     632.078      52.819
  H       22.367     630.244      53.502
  H       23.675     631.372      53.091
  H       22.742     630.567      51.793
  P       21.939     633.246      51.737
  C       20.986     635.296      53.026
  O       20.771     634.308      52.011
  C       19.919     636.390      52.929
  O       19.940     636.954      51.590
  C       18.494     635.891      53.207
  O       17.792     636.909      53.942
  C       17.880     635.762      51.829
  O       16.449     635.866      51.837
  C       18.600     636.882      51.058
  N       18.594     636.620      49.620
  C       17.674     637.344      48.854
  O       16.896     638.138      49.397
  N       17.604     637.106      47.508
  C       18.335     636.172      46.972
  N       18.193     635.955      45.640
  C       19.286     635.345      47.760
  C       19.359     635.625      49.063
  O       21.487     632.559      50.364
  O       23.311     633.838      51.656
  H       16.089     635.072      52.290
  H       21.975     632.928      49.601
  H       19.848     634.551      47.283
  H       20.027     635.067      49.725
  H       18.108     637.848      51.242
  H       18.145     634.784      51.397
  H       18.467     634.956      53.769
  H       20.197     637.203      53.629
  H       17.535     636.533      45.131
  H       21.971     635.742      52.865
  H       18.684     635.222      45.133
  H       20.963     634.815      54.004
  P       17.841     636.789      55.546
  C       15.804     637.361      57.071
  O       16.775     637.823      56.139
  O       19.264     637.420      55.926
  O       17.700     635.386      56.046
  H       19.873     636.705      56.215
  H       15.175     638.175      57.364
  H       16.298     636.964      57.933
  H       15.209     636.596      56.617

 6  7  8  9  10  11  12  13  14  15  16  26  30  31  32  33  35 0
 6-311+G(2d,p)
 ****
 37  38 0
 6-311+G(2d,p)
 ****
 1  2  3  4  5  17  18  19  20  21  22  23  24  25 0
 3-21G
 ****
 27  28  29  34  36  39  40  41  42  43  44  45  46 0
 3-21G
 ****


