%nproc=1
%NoSave
%Mem=1900MB
#P OB98/GEN NMR

erre ene a

0 1
  C      -78.288      96.300      12.610
  O      -78.967      95.159      13.110
  P      -80.048      95.289      14.291
  C      -79.883      95.820      16.816
  O      -79.181      95.489      15.625
  C      -79.093      95.347      18.033
  O      -78.995      93.910      18.018
  C      -77.659      95.860      18.093
  O      -77.618      97.216      18.511
  C      -77.034      94.857      19.057
  O      -77.362      95.196      20.413
  C      -77.748      93.547      18.657
  N      -76.936      92.702      17.787
  C      -76.283      91.626      18.397
  O      -76.402      91.410      19.602
  N      -75.527      90.786      17.615
  C      -75.413      91.013      16.341
  N      -74.708      90.110      15.605
  C      -76.038      92.167      15.669
  C      -76.782      92.957      16.442
  O      -81.044      94.180      14.355
  O      -80.700      96.733      14.083
  H      -77.017      96.098      20.568
  H      -81.479      96.730      13.474
  H      -75.904      92.321      14.607
  H      -77.292      93.814      16.021
  H      -78.020      92.976      19.552
  H      -75.942      94.798      18.980
  H      -77.179      95.772      17.109
  H      -79.642      95.645      18.937
  H      -74.447      89.249      16.072
  H      -80.855      95.314      16.801
  H      -74.811      90.054      14.598
  H      -80.050      96.903      16.850
  P      -76.419      98.127      17.955
  C      -73.835      98.024      18.160
  O      -75.083      97.564      18.648
  O      -76.674      99.539      18.660
  O      -76.368      98.238      16.466
  H      -77.095     100.160      18.037
  H      -73.060      97.741      18.877
  H      -73.838      99.110      18.051
  H      -73.613      97.550      17.200
  H      -77.616      96.003      11.833
  H      -77.736      96.762      13.402
  H      -79.000      96.996      12.219

 3  4  5  6  7  8  9  10  11  12  13  23  27  28  29  30  32 0
 6-311+G(2d,p)
 ****
 34  35 0
 6-311+G(2d,p)
 ****
 1  2  14  15  16  17  18  19  20  21  22  24  25  26 0
 3-21G
 ****
 31  33  36  37  38  39  40  41  42  43  44  45  46 0
 3-21G
 ****


