%nproc=1
%NoSave
%Mem=1900MB
#P OB98/GEN NMR

erre ene a

0 1
  C      -77.256    -157.302      73.966
  O      -77.994    -157.160      75.163
  H      -77.445    -156.453      73.305
  H      -76.190    -157.329      74.209
  H      -77.527    -158.234      73.463
  P      -79.590    -157.081      75.008
  C      -80.478    -159.108      76.352
  O      -80.215    -157.712      76.349
  C      -79.241    -159.872      76.817
  O      -78.800    -159.295      78.074
  C      -79.478    -161.376      77.040
  O      -78.475    -162.147      76.368
  C      -79.310    -161.560      78.536
  O      -78.729    -162.813      78.880
  C      -78.417    -160.388      78.919
  N      -76.347    -160.920      83.549
  C      -75.816    -161.051      82.314
  N      -76.394    -160.800      81.121
  C      -77.646    -160.340      81.288
  C      -78.314    -160.131      82.483
  C      -77.615    -160.464      83.657
  N      -78.176    -160.384      84.913
  N      -79.592    -159.656      82.256
  C      -79.709    -159.619      80.944
  N      -78.563    -160.038      80.317
  O      -79.903    -158.185      73.889
  O      -80.110    -155.741      74.617
  H      -77.907    -162.903      78.365
  H      -80.316    -157.746      73.122
  H      -74.791    -161.410      82.276
  H      -80.605    -159.347      80.401
  H      -77.357    -160.605      78.730
  H      -80.293    -161.489      79.017
  H      -80.469    -161.700      76.705
  H      -78.435    -159.714      76.090
  H      -80.738    -159.435      75.339
  H      -77.646    -160.752      85.687
  H      -79.156    -160.152      84.989
  H      -81.325    -159.311      77.015
  P      -78.922    -162.847      74.990
  C      -76.575    -163.201      73.935
  O      -77.725    -163.807      74.509
  O      -78.895    -161.636      73.943
  O      -80.269    -163.486      75.049
  H      -79.768    -161.548      73.513
  H      -75.869    -163.959      73.666
  H      -76.130    -162.536      74.645
  H      -76.859    -162.652      73.062

 6  7  8  9  10  11  12  13  14  15  25  28  32  33  34  35 0
 6-311+G(2d,p)
 ****
 36  39  40 0
 6-311+G(2d,p)
 ****
 1  2  3  4  5  16  17  18  19  20  21  22  23  24 0
 3-21G
 ****
 26  27  29  30  31  37  38  41  42  43  44  45  46  47  48 0
 3-21G
 ****


