%nproc=1
%NoSave
%Mem=1900MB
#P OB98/GEN NMR

erre ene a

0 1
  C     -399.115    -409.255       9.683
  O     -397.712    -409.416       9.768
  H     -399.481    -409.701       8.756
  H     -399.582    -409.770      10.528
  H     -399.387    -408.197       9.723
  P     -396.809    -408.501       8.812
  C     -395.285    -407.538      10.681
  O     -396.291    -407.276       9.715
  C     -395.859    -407.455      12.094
  O     -396.825    -408.536      12.267
  C     -394.812    -407.584      13.215
  O     -395.168    -406.690      14.271
  C     -394.985    -409.013      13.699
  O     -394.567    -409.190      15.047
  C     -396.490    -409.214      13.488
  N     -396.011    -413.641      15.943
  C     -395.850    -412.364      16.349
  N     -396.052    -411.236      15.636
  C     -396.526    -411.515      14.414
  C     -396.750    -412.769      13.861
  C     -396.453    -413.867      14.686
  N     -396.552    -415.184      14.258
  N     -397.187    -412.644      12.557
  C     -397.202    -411.353      12.320
  N     -396.810    -410.624      13.411
  O     -397.900    -407.823       7.851
  O     -395.756    -409.221       8.039
  H     -393.597    -409.070      15.092
  H     -398.066    -408.405       7.086
  H     -395.502    -412.228      17.371
  H     -397.455    -410.887      11.374
  H     -397.088    -408.779      14.297
  H     -394.406    -409.687      13.062
  H     -393.784    -407.377      12.886
  H     -396.412    -406.516      12.191
  H     -394.486    -406.793      10.578
  H     -396.211    -415.898      14.881
  H     -396.770    -415.358      13.285
  H     -394.860    -408.535      10.502
  P     -394.647    -405.174      14.165
  C     -396.921    -403.900      14.109
  O     -395.756    -404.305      13.399
  O     -393.453    -405.269      13.093
  O     -394.175    -404.598      15.461
  H     -392.766    -404.617      13.298
  H     -397.555    -403.333      13.460
  H     -396.637    -403.298      14.946
  H     -397.447    -404.765      14.454

 6  7  8  9  10  11  12  13  14  15  25  28  32  33  34  35 0
 6-311+G(2d,p)
 ****
 36  39  40 0
 6-311+G(2d,p)
 ****
 1  2  3  4  5  16  17  18  19  20  21  22  23  24 0
 3-21G
 ****
 26  27  29  30  31  37  38  41  42  43  44  45  46  47 0
 3-21G
 ****
 48 0
 3-21G
 ****


