%nproc=1
%NoSave
%Mem=1900MB
#P OB98/GEN NMR

erre ene a

0 1
  C      711.782     660.294    -609.028
  O      710.571     660.729    -608.448
  H      711.913     660.804    -609.987
  H      711.748     659.217    -609.204
  H      712.626     660.536    -608.375
  P      710.246     660.230    -606.956
  C      710.419     662.650    -606.034
  O      710.888     661.312    -605.953
  C      710.531     663.334    -604.672
  O      709.705     662.626    -603.712
  C      711.954     663.377    -604.130
  O      712.167     664.638    -603.459
  C      711.993     662.266    -603.095
  O      712.981     662.458    -602.088
  C      710.538     662.274    -602.586
  N      710.153     660.984    -602.022
  C      710.624     660.712    -600.724
  O      711.327     661.523    -600.137
  N      710.339     659.488    -600.169
  C      709.727     658.576    -600.877
  N      709.505     657.378    -600.275
  C      709.275     658.809    -602.264
  C      709.522     660.014    -602.773
  O      711.202     658.959    -606.770
  O      708.804     659.920    -606.683
  H      713.867     662.474    -602.525
  H      710.783     658.292    -606.184
  H      708.796     658.018    -602.805
  H      709.236     660.273    -603.781
  H      710.409     663.052    -601.822
  H      712.206     661.302    -603.600
  H      712.728     663.257    -604.901
  H      710.115     664.355    -604.761
  H      709.837     657.264    -599.331
  H      709.360     662.640    -606.333
  H      709.075     656.593    -600.739
  H      710.992     663.207    -606.799
  P      713.144     665.667    -604.172
  C      711.306     667.519    -603.984
  O      712.247     666.857    -604.824
  O      713.686     664.879    -605.451
  O      714.265     666.138    -603.314
  H      714.620     664.620    -605.318
  H      710.794     668.272    -604.546
  H      711.819     667.974    -603.163
  H      710.598     666.808    -603.612

 6  7  8  9  10  11  12  13  14  15  16  26  30  31  32  33  35 0
 6-311+G(2d,p)
 ****
 37  38 0
 6-311+G(2d,p)
 ****
 1  2  3  4  5  17  18  19  20  21  22  23  24  25 0
 3-21G
 ****
 27  28  29  34  36  39  40  41  42  43  44  45  46 0
 3-21G
 ****


