%nproc=1
%NoSave
%Mem=1900MB
#P OB98/GEN NMR

erre ene a

0 1
  C     -125.997     146.372     135.598
  O     -126.258     145.229     134.774
  P     -126.314     145.338     133.173
  C     -127.940     145.963     131.285
  O     -127.766     145.832     132.692
  C     -129.372     145.670     130.821
  O     -129.700     144.262     130.995
  C     -130.465     146.466     131.546
  O     -131.516     146.656     130.597
  C     -130.899     145.496     132.633
  O     -132.172     145.797     133.186
  C     -130.841     144.178     131.868
  N     -132.020     139.225     132.446
  C     -132.092     140.046     131.375
  N     -131.725     141.340     131.288
  C     -131.199     141.769     132.448
  C     -131.050     141.046     133.622
  C     -131.502     139.712     133.597
  N     -131.473     138.885     134.697
  N     -130.498     141.830     134.615
  C     -130.329     143.010     134.051
  N     -130.734     143.024     132.741
  O     -125.823     144.120     132.460
  O     -125.370     146.586     132.831
  H     -132.837     145.729     132.477
  H     -124.782     146.348     132.087
  H     -132.507     139.607     130.471
  H     -129.941     143.890     134.547
  H     -131.731     144.043     131.241
  H     -130.168     145.522     133.453
  H     -130.118     147.423     131.944
  H     -129.416     145.865     129.742
  H     -127.250     145.275     130.785
  H     -131.902     137.978     134.607
  H     -131.210     139.269     135.594
  H     -127.661     146.982     130.991
  P     -131.795     148.081     129.924
  C     -132.884     150.286     130.632
  O     -132.594     148.951     131.005
  O     -132.432     148.025     128.574
  O     -130.359     148.790     129.866
  H     -130.380     149.514     129.213
  H     -131.981     150.898     130.721
  H     -133.654     150.684     131.299
  H     -133.253     150.333     129.600
  H     -126.004     146.079     136.627
  H     -126.753     147.111     135.432
  H     -125.039     146.779     135.350

 3  4  5  6  7  8  9  10  11  12  22  25  29  30  31  32 0
 6-311+G(2d,p)
 ****
 33  36  37 0
 6-311+G(2d,p)
 ****
 1  2  13  14  15  16  17  18  19  20  21  23  24  26 0
 3-21G
 ****
 27  28  34  35  38  39  40  41  42  43  44  45  46  47  48 0
 3-21G
 ****


