%nproc=1
%NoSave
%Mem=1900MB
#P OB98/GEN NMR

erre ene a

0 1
  C       43.268       9.024    -140.664
  O       42.855       7.654    -140.746
  P       41.757       7.264    -141.844
  C       43.448       5.761    -143.126
  O       42.180       5.863    -142.496
  C       43.969       4.324    -143.043
  O       44.493       4.020    -141.731
  C       42.905       3.271    -143.321
  O       42.719       3.064    -144.715
  C       43.541       2.039    -142.695
  O       44.521       1.485    -143.596
  C       44.224       2.623    -141.453
  N       43.063      -0.325    -137.510
  C       43.959      -0.529    -138.541
  N       44.653      -1.687    -138.512
  N       44.156       0.323    -139.512
  C       43.406       1.444    -139.400
  C       42.485       1.763    -138.429
  C       42.264       0.803    -137.369
  O       41.474       0.926    -136.438
  N       41.918       2.987    -138.660
  C       42.508       3.422    -139.757
  N       43.408       2.513    -140.255
  O       42.048       8.306    -143.025
  O       40.347       7.357    -141.362
  H       44.830       0.650    -143.194
  H       41.230       8.473    -143.528
  H       42.947      -1.017    -136.791
  H       42.321       4.379    -140.225
  H       45.183       2.139    -141.236
  H       42.812       1.249    -142.497
  H       44.587      -2.366    -137.769
  H       41.965       3.512    -142.809
  H       45.339      -1.840    -139.242
  H       44.782       4.214    -143.774
  H       44.163       6.442    -142.656
  H       43.358       6.097    -144.163
  P       41.494       2.140    -145.178
  C       40.194       4.032    -146.389
  O       40.906       2.817    -146.504
  O       40.385       2.437    -144.063
  O       41.809       0.686    -145.271
  H       39.833       1.646    -143.923
  H       40.013       4.425    -147.391
  H       40.770       4.768    -145.822
  H       39.231       3.859    -145.899
  H       44.000       9.130    -139.891
  H       42.421       9.639    -140.441
  H       43.691       9.326    -141.599

 3  4  5  6  7  8  9  10  11  12  23  26  30  31 0
 6-311+G(2d,p)
 ****
 33  35  36  37  38 0
 6-311+G(2d,p)
 ****
 1  2  13  14  15  16  17  18  19  20  21  22  24  25 0
 3-21G
 ****
 27  28  29  32  34  39  40  41  42  43  44  45  46  47  48  49 0
 3-21G
 ****


