%nproc=1
%NoSave
%Mem=1900MB
#P OB98/GEN NMR

erre ene a

0 1
  C     -149.460    -186.223      94.146
  O     -148.921    -185.051      93.566
  H     -150.450    -185.992      94.549
  H     -148.820    -186.568      94.963
  H     -149.558    -187.008      93.392
  P     -147.436    -185.173      92.970
  C     -146.251    -184.411      95.147
  O     -146.471    -185.465      94.220
  C     -144.935    -184.620      95.890
  O     -145.004    -185.790      96.733
  C     -143.722    -184.800      94.983
  O     -143.209    -183.548      94.566
  C     -142.772    -185.548      95.907
  O     -142.116    -184.641      96.819
  C     -143.727    -186.483      96.664
  N     -144.339    -191.397      97.643
  C     -144.107    -190.340      98.500
  N     -143.993    -190.637      99.813
  N     -143.985    -189.100      98.107
  C     -144.062    -188.957      96.763
  C     -144.285    -189.924      95.810
  C     -144.474    -191.284      96.265
  O     -144.764    -192.249      95.564
  N     -144.315    -189.380      94.550
  C     -144.077    -188.097      94.741
  N     -143.911    -187.791      96.066
  O     -147.071    -183.665      92.568
  O     -147.285    -186.092      91.806
  H     -142.789    -184.187      97.355
  H     -146.553    -183.678      91.741
  H     -144.455    -192.327      98.005
  H     -144.025    -187.352      93.957
  H     -143.398    -186.655      97.696
  H     -141.979    -186.050      95.350
  H     -143.788    -191.573     100.134
  H     -143.965    -185.436      94.122
  H     -143.751    -189.872     100.429
  H     -144.792    -183.756      96.554
  H     -147.077    -184.395      95.866
  H     -146.225    -183.458      94.609
  P     -142.466    -183.468      93.148
  C     -140.029    -183.432      94.046
  O     -141.017    -184.140      93.311
  O     -142.142    -181.906      93.003
  O     -143.273    -183.956      91.993
  H     -142.749    -181.501      92.357
  H     -139.124    -184.002      94.067
  H     -140.374    -183.273      95.046
  H     -139.845    -182.488      93.578

 6  7  8  9  10  11  12  13  14  15  26  29  33  34 0
 6-311+G(2d,p)
 ****
 36  38  39  40  41 0
 6-311+G(2d,p)
 ****
 1  2  3  4  5  16  17  18  19  20  21  22  23  24  25 0
 3-21G
 ****
 27  28  30  31  32  35  37  42  43  44  45  46  47 0
 3-21G
 ****
 48  49 0
 3-21G
 ****


