%nproc=1
%NoSave
%Mem=1900MB
#P OB98/GEN NMR

erre ene a

0 1
  C      282.189     221.028     285.913
  O      283.543     220.952     285.481
  P      284.658     221.598     286.445
  C      285.246     223.599     284.881
  O      284.695     223.165     286.121
  C      285.307     225.124     284.835
  O      283.976     225.672     284.751
  C      285.938     225.770     286.060
  O      287.348     225.640     286.044
  C      285.428     227.198     285.916
  O      286.215     227.907     284.938
  C      284.000     226.977     285.391
  N      281.803     229.906     288.975
  C      282.814     230.151     288.104
  N      283.356     229.317     287.200
  C      282.745     228.117     287.231
  C      281.720     227.719     288.076
  C      281.239     228.679     288.978
  N      280.210     228.425     289.863
  N      281.367     226.405     287.829
  C      282.164     226.019     286.850
  N      283.002     227.020     286.447
  O      286.029     221.057     285.821
  O      284.518     221.244     287.890
  H      285.835     228.807     284.859
  H      286.692     220.901     286.519
  H      283.239     231.147     288.147
  H      282.154     225.037     286.402
  H      283.713     227.720     284.634
  H      285.476     227.771     286.852
  H      285.536     225.323     286.981
  H      285.856     225.417     283.927
  H      284.616     223.245     284.061
  H      280.030     229.117     290.578
  H      279.896     227.468     289.969
  H      286.242     223.163     284.763
  P      288.111     225.702     287.456
  C      288.829     228.153     287.140
  O      288.008     227.262     287.871
  O      289.642     225.565     287.004
  O      287.635     224.727     288.475
  H      289.863     226.164     286.274
  H      288.626     229.168     287.486
  H      288.603     228.095     286.072
  H      289.882     227.926     287.309
  H      281.556     220.564     285.185
  H      281.908     222.054     286.028
  H      282.085     220.523     286.850

 3  4  5  6  7  8  9  10  11  12  22  25  29  30  31  32 0
 6-311+G(2d,p)
 ****
 33  36  37 0
 6-311+G(2d,p)
 ****
 1  2  13  14  15  16  17  18  19  20  21  23  24  26 0
 3-21G
 ****
 27  28  34  35  38  39  40  41  42  43  44  45  46  47  48 0
 3-21G
 ****


