%nproc=1
%NoSave
%Mem=1900MB
#P OB98/GEN NMR

erre ene a

0 1
  C      -52.255      30.124    -118.428
  O      -52.029      30.611    -117.118
  H      -53.264      30.406    -118.736
  H      -52.173      29.034    -118.443
  H      -51.535      30.565    -119.122
  P      -50.582      30.319    -116.486
  C      -48.198      31.077    -117.154
  O      -49.555      30.929    -117.556
  C      -47.258      30.712    -118.301
  O      -47.438      29.337    -118.685
  C      -47.471      31.527    -119.571
  O      -46.833      32.790    -119.472
  C      -46.794      30.632    -120.598
  O      -45.365      30.819    -120.540
  C      -47.157      29.219    -120.105
  N      -48.968      24.962    -122.328
  C      -47.726      25.303    -121.918
  N      -47.310      26.465    -121.376
  C      -48.330      27.334    -121.269
  C      -49.650      27.127    -121.643
  C      -49.961      25.871    -122.189
  N      -51.232      25.524    -122.594
  N      -50.413      28.246    -121.386
  C      -49.579      29.094    -120.815
  N      -48.300      28.602    -120.756
  O      -50.336      28.914    -116.056
  O      -50.538      31.407    -115.311
  H      -45.177      31.734    -120.820
  H      -50.948      32.240    -115.601
  H      -46.966      24.536    -122.041
  H      -49.856      30.062    -120.416
  H      -46.320      28.522    -120.218
  H      -47.103      30.865    -121.619
  H      -48.534      31.614    -119.817
  H      -46.229      30.816    -117.936
  H      -47.986      30.447    -116.285
  H      -51.334      24.672    -123.128
  H      -51.942      26.242    -122.605
  H      -48.053      32.123    -116.866
  P      -47.370      34.043    -120.318
  C      -49.476      35.508    -120.153
  O      -48.923      34.212    -119.951
  O      -47.081      33.987    -121.779
  O      -46.694      35.314    -119.628
  H      -46.437      35.972    -120.301
  H      -50.510      35.502    -119.877
  H      -49.384      35.778    -121.184
  H      -48.950      36.218    -119.550

 6  7  8  9  10  11  12  13  14  15  25  28  32  33  34  35 0
 6-311+G(2d,p)
 ****
 36  39  40 0
 6-311+G(2d,p)
 ****
 1  2  3  4  5  16  17  18  19  20  21  22  23  24 0
 3-21G
 ****
 26  27  29  30  31  37  38  41  42  43  44  45  46  47 0
 3-21G
 ****
 48 0
 3-21G
 ****


