%nproc=1
%NoSave
%Mem=1900MB
#P OB98/GEN NMR

erre ene a

0 1
  C      -99.116     589.011    -108.445
  O      -99.886     588.785    -109.639
  P     -100.733     587.418    -109.687
  C     -100.600     586.899    -112.236
  O     -101.401     587.313    -111.138
  C     -101.488     586.334    -113.352
  O     -102.228     585.170    -112.914
  C     -102.537     587.318    -113.844
  O     -101.958     588.320    -114.670
  C     -103.494     586.387    -114.570
  O     -102.982     586.050    -115.883
  C     -103.464     585.132    -113.684
  N     -106.941     582.010    -111.596
  C     -105.944     581.785    -112.473
  N     -105.072     582.674    -112.996
  C     -105.270     583.896    -112.477
  C     -106.234     584.282    -111.555
  C     -107.106     583.261    -111.114
  N     -108.127     583.495    -110.206
  N     -106.142     585.621    -111.259
  C     -105.149     586.059    -112.019
  N     -104.592     585.059    -112.754
  O     -101.961     587.705    -108.703
  O      -99.953     586.214    -109.269
  H     -103.630     585.437    -116.287
  H     -101.857     587.184    -107.880
  H     -105.846     580.764    -112.844
  H     -104.802     587.081    -112.055
  H     -103.459     584.205    -114.264
  H     -104.489     586.805    -114.719
  H     -103.051     587.794    -112.993
  H     -100.823     586.039    -114.181
  H      -99.888     586.119    -111.908
  H     -108.756     582.730    -109.993
  H     -108.327     584.443    -109.914
  H     -100.021     587.747    -112.583
  P     -101.520     589.699    -113.967
  C     -101.912     591.685    -115.571
  O     -101.066     590.616    -115.218
  O     -100.143     589.299    -113.285
  O     -102.553     590.315    -113.077
  H      -99.570     588.788    -113.896
  H     -101.460     592.232    -116.406
  H     -102.029     592.366    -114.732
  H     -102.885     591.296    -115.883
  H      -98.598     589.944    -108.526
  H      -98.407     588.219    -108.323
  H      -99.770     589.038    -107.599

 3  4  5  6  7  8  9  10  11  12  22  25  29  30  31  32 0
 6-311+G(2d,p)
 ****
 33  36  37 0
 6-311+G(2d,p)
 ****
 1  2  13  14  15  16  17  18  19  20  21  23  24  26 0
 3-21G
 ****
 27  28  34  35  38  39  40  41  42  43  44  45  46  47  48 0
 3-21G
 ****


