%nproc=1
%NoSave
%Mem=1900MB
#P OB98/GEN NMR

erre ene a

0 1
  C     -393.210    -240.248     -44.203
  O     -393.188    -239.242     -45.193
  H     -392.210    -240.337     -43.768
  H     -393.487    -241.211     -44.643
  H     -393.917    -239.981     -43.413
  P     -394.536    -239.020     -46.033
  C     -393.608    -236.810     -47.039
  O     -394.155    -238.098     -47.289
  C     -392.625    -236.450     -48.151
  O     -391.388    -237.181     -47.966
  C     -393.105    -236.819     -49.547
  O     -394.037    -235.884     -50.070
  C     -391.794    -236.816     -50.312
  O     -391.435    -235.497     -50.748
  C     -390.796    -237.349     -49.270
  N     -390.427    -238.738     -49.534
  C     -389.268    -238.925     -50.281
  O     -388.576    -237.997     -50.700
  N     -388.944    -240.226     -50.563
  C     -389.677    -241.324     -50.226
  O     -389.357    -242.459     -50.562
  C     -390.901    -241.064     -49.451
  C     -391.221    -239.802     -49.150
  O     -395.396    -238.050     -45.096
  O     -395.277    -240.270     -46.375
  H     -396.122    -238.550     -44.682
  H     -390.497    -235.548     -51.018
  H     -388.106    -240.383     -51.101
  H     -391.511    -241.914     -49.170
  H     -392.124    -239.583     -48.590
  H     -389.876    -236.747     -49.278
  H     -391.860    -237.443     -51.200
  H     -393.520    -237.832     -49.551
  H     -392.404    -235.380     -48.086
  H     -393.074    -236.816     -46.085
  H     -394.421    -236.082     -46.984
  P     -395.491    -236.428     -50.478
  C     -396.808    -234.149     -50.405
  O     -396.235    -235.195     -51.182
  O     -396.173    -236.555     -49.040
  O     -395.440    -237.692     -51.271
  H     -395.789    -235.932     -48.400
  H     -397.255    -233.426     -51.055
  H     -396.045    -233.680     -49.820
  H     -397.556    -234.555     -49.756

 6  7  8  9  10  11  12  13  14  15  16  27  31  32  33  34  35 0
 6-311+G(2d,p)
 ****
 36  37 0
 6-311+G(2d,p)
 ****
 1  2  3  4  5  17  18  19  20  21  22  23  24  25 0
 3-21G
 ****
 26  28  29  30  38  39  40  41  42  43  44  45 0
 3-21G
 ****


