%nproc=1
%NoSave
%Mem=1900MB
#P OB98/GEN NMR

erre ene a

0 1
  C       67.046    -232.693      84.888
  O       67.194    -233.824      84.054
  H       67.959    -232.095      84.834
  H       66.897    -233.013      85.923
  H       66.202    -232.080      84.563
  P       65.888    -234.729      83.829
  C       65.902    -237.160      84.740
  O       65.844    -235.776      85.047
  C       67.293    -237.712      85.044
  O       67.728    -237.279      86.353
  C       67.377    -239.233      85.046
  O       67.519    -239.758      83.734
  C       68.642    -239.441      85.863
  O       69.799    -239.175      85.044
  C       68.497    -238.364      86.946
  N       68.905    -241.254      91.094
  C       69.806    -241.046      90.065
  N       70.977    -241.712      90.147
  N       69.575    -240.262      89.043
  C       68.357    -239.671      89.087
  C       67.382    -239.797      90.052
  C       67.651    -240.660      91.178
  O       66.900    -240.863      92.128
  N       66.282    -239.033      89.756
  C       66.582    -238.463      88.604
  N       67.828    -238.824      88.152
  O       66.282    -235.643      82.572
  O       64.624    -233.979      83.578
  H       69.812    -239.857      84.348
  H       65.487    -235.787      82.026
  H       69.127    -241.878      91.849
  H       65.938    -237.784      88.063
  H       69.466    -237.950      87.255
  H       68.742    -240.462      86.235
  H       71.197    -242.368      90.880
  H       66.525    -239.683      85.574
  H       71.665    -241.549      89.423
  H       67.990    -237.287      84.310
  H       65.682    -237.303      83.676
  H       65.148    -237.688      85.334
  P       67.063    -241.280      83.487
  C       69.114    -242.723      82.802
  O       68.337    -242.178      83.867
  O       67.000    -241.381      81.891
  O       65.773    -241.662      84.126
  H       66.403    -242.106      81.625
  H       69.923    -243.294      83.207
  H       69.504    -241.928      82.202
  H       68.498    -243.356      82.199

 6  7  8  9  10  11  12  13  14  15  26  29  33  34 0
 6-311+G(2d,p)
 ****
 36  38  39  40  41 0
 6-311+G(2d,p)
 ****
 1  2  3  4  5  16  17  18  19  20  21  22  23  24  25 0
 3-21G
 ****
 27  28  30  31  32  35  37  42  43  44  45  46  47 0
 3-21G
 ****
 48  49 0
 3-21G
 ****


