%nproc=1
%NoSave
%Mem=1900MB
#P OB98/GEN NMR

erre ene a

0 1
  C     -864.023    -282.359    -206.987
  O     -865.238    -281.887    -206.438
  H     -864.044    -283.455    -206.994
  H     -863.173    -282.025    -206.388
  H     -863.917    -282.002    -208.020
  P     -865.392    -280.295    -206.309
  C     -864.137    -280.338    -204.053
  O     -864.154    -279.849    -205.388
  C     -862.875    -279.876    -203.322
  O     -862.777    -278.434    -203.440
  C     -862.880    -280.220    -201.823
  O     -861.556    -280.589    -201.429
  C     -863.268    -278.909    -201.158
  O     -862.790    -278.820    -199.821
  C     -862.656    -277.886    -202.120
  N     -862.612    -273.293    -199.883
  C     -861.727    -274.315    -199.870
  N     -861.813    -275.504    -200.508
  C     -862.929    -275.561    -201.256
  C     -863.926    -274.603    -201.368
  C     -863.737    -273.424    -200.630
  N     -864.643    -272.388    -200.624
  N     -864.937    -275.052    -202.210
  C     -864.545    -276.249    -202.595
  N     -863.349    -276.610    -202.041
  O     -866.729    -279.813    -205.859
  O     -864.940    -279.810    -207.760
  H     -861.816    -278.911    -199.829
  H     -864.147    -280.283    -208.068
  H     -860.842    -274.164    -199.257
  H     -865.100    -276.894    -203.271
  H     -861.597    -277.694    -201.918
  H     -864.363    -278.822    -201.141
  H     -863.578    -281.023    -201.582
  H     -861.994    -280.302    -203.828
  H     -864.180    -281.434    -204.059
  H     -864.422    -271.562    -200.067
  H     -865.481    -272.450    -201.182
  H     -865.031    -279.967    -203.547
  P     -861.272    -282.119    -201.035
  C     -861.691    -281.573    -198.533
  O     -862.007    -282.428    -199.640
  O     -859.854    -282.566    -201.130
  O     -862.193    -282.923    -202.087
  H     -861.724    -283.727    -202.364
  H     -862.244    -281.885    -197.672
  H     -861.950    -280.564    -198.777
  H     -860.643    -281.632    -198.325

 6  7  8  9  10  11  12  13  14  15  25  28  32  33  34  35 0
 6-311+G(2d,p)
 ****
 36  39  40 0
 6-311+G(2d,p)
 ****
 1  2  3  4  5  16  17  18  19  20  21  22  23  24 0
 3-21G
 ****
 26  27  29  30  31  37  38  41  42  43  44  45  46  47 0
 3-21G
 ****
 48 0
 3-21G
 ****


