%nproc=1
%NoSave
%Mem=1900MB
#P OB98/GEN NMR

erre ene a

0 1
  C     -124.781    -116.012    -182.066
  O     -124.197    -117.274    -182.306
  H     -124.273    -115.268    -182.685
  H     -124.660    -115.732    -181.016
  H     -125.844    -116.019    -182.328
  P     -124.845    -118.571    -181.620
  C     -125.067    -119.457    -179.210
  O     -124.396    -118.553    -180.080
  C     -124.893    -119.009    -177.761
  O     -125.350    -117.647    -177.598
  C     -125.689    -119.838    -176.757
  O     -125.075    -121.091    -176.539
  C     -125.693    -118.898    -175.561
  O     -124.445    -118.961    -174.852
  C     -125.856    -117.523    -176.248
  N     -127.241    -117.048    -176.243
  C     -127.526    -115.992    -175.385
  O     -126.685    -115.472    -174.654
  N     -128.835    -115.582    -175.357
  C     -129.870    -116.174    -176.024
  O     -131.049    -115.916    -175.804
  C     -129.496    -117.230    -176.974
  C     -128.221    -117.626    -177.030
  O     -124.618    -119.863    -182.331
  O     -126.405    -118.211    -181.538
  H     -126.879    -118.667    -182.264
  H     -123.741    -118.955    -175.530
  H     -129.062    -114.850    -174.701
  H     -130.281    -117.683    -177.569
  H     -127.928    -118.424    -177.701
  H     -125.236    -116.768    -175.746
  H     -126.481    -119.139    -174.845
  H     -126.720    -119.966    -177.109
  H     -123.821    -119.035    -177.522
  H     -124.631    -120.455    -179.337
  H     -126.128    -119.494    -179.480
  P     -125.767    -122.210    -175.624
  C     -126.571    -122.452    -173.203
  O     -125.851    -121.646    -174.127
  O     -125.178    -123.576    -175.741
  O     -127.301    -122.204    -176.097
  H     -127.563    -123.116    -176.331
  H     -126.564    -121.984    -172.241
  H     -126.110    -123.415    -173.135
  H     -127.581    -122.563    -173.538

 6  7  8  9  10  11  12  13  14  15  16  27  31  32  33  34  35 0
 6-311+G(2d,p)
 ****
 36  37 0
 6-311+G(2d,p)
 ****
 1  2  3  4  5  17  18  19  20  21  22  23  24  25 0
 3-21G
 ****
 26  28  29  30  38  39  40  41  42  43  44  45 0
 3-21G
 ****


