%nproc=1
%NoSave
%Mem=1900MB
#P OB98/GEN NMR

erre ene a

0 1
  C      493.350    -417.656     -11.469
  O      494.141    -417.668     -10.280
  P      495.738    -417.670     -10.397
  C      496.326    -419.492      -8.659
  O      496.296    -419.126     -10.034
  C      497.314    -420.647      -8.448
  O      497.050    -421.741      -9.361
  C      498.757    -420.248      -8.720
  O      499.356    -419.353      -7.805
  C      499.426    -421.597      -8.926
  O      499.780    -422.209      -7.684
  C      498.310    -422.406      -9.627
  N      498.535    -422.551     -11.066
  C      498.947    -423.813     -11.491
  O      499.159    -424.747     -10.728
  N      499.144    -423.948     -12.841
  C      499.010    -422.968     -13.777
  O      499.222    -423.141     -14.973
  C      498.595    -421.649     -13.263
  C      498.387    -421.504     -11.952
  O      496.436    -416.533      -9.723
  O      495.968    -417.595     -11.987
  H      500.396    -421.609      -7.227
  H      496.717    -416.981     -12.150
  H      499.438    -424.860     -13.169
  H      498.485    -420.839     -13.978
  H      498.079    -420.538     -11.555
  H      498.232    -423.403      -9.197
  H      500.354    -421.503      -9.510
  H      498.785    -419.731      -9.692
  H      497.189    -421.029      -7.431
  H      495.329    -419.784      -8.332
  H      496.605    -418.620      -8.065
  P      499.759    -417.853      -8.179
  C      502.343    -417.860      -7.934
  O      501.237    -417.865      -8.809
  O      499.454    -416.790      -7.171
  O      498.849    -417.593      -9.480
  H      498.588    -416.651      -9.496
  H      503.261    -417.851      -8.542
  H      502.338    -418.760      -7.320
  H      502.330    -416.965      -7.306
  H      492.313    -417.656     -11.207
  H      493.571    -418.525     -12.053
  H      493.574    -416.778     -12.038

 3  4  5  6  7  8  9  10  11  12  13  23  28  29  30  31  32 0
 6-311+G(2d,p)
 ****
 33  34 0
 6-311+G(2d,p)
 ****
 1  2  14  15  16  17  18  19  20  21  22  24  25  26  27 0
 3-21G
 ****
 35  36  37  38  39  40  41  42  43  44  45 0
 3-21G
 ****


