%nproc=1
%NoSave
%Mem=1900MB
#P OB98/GEN NMR

erre ene a

0 1
  C       26.792     242.268      42.629
  O       25.819     242.898      43.436
  H       26.395     241.308      42.283
  H       27.698     242.084      43.212
  H       27.027     242.888      41.758
  P       26.131     244.404      43.902
  C       26.701     243.529      46.312
  O       27.099     244.272      45.173
  C       27.488     243.971      47.547
  O       27.073     245.315      47.906
  C       27.274     243.074      48.768
  O       28.501     242.998      49.495
  C       26.249     243.839      49.587
  O       26.285     243.476      50.966
  C       26.645     245.293      49.285
  N       25.551     246.231      49.523
  C       25.436     246.746      50.817
  O       26.227     246.397      51.696
  N       24.410     247.608      51.101
  C       23.531     247.886      50.189
  N       22.525     248.728      50.539
  C       23.586     247.329      48.822
  C       24.615     246.526      48.559
  O       24.730     244.847      44.534
  O       26.626     245.295      42.812
  H       27.131     243.797      51.348
  H       24.333     244.171      45.109
  H       22.825     247.581      48.100
  H       24.739     246.081      47.579
  H       27.500     245.597      49.903
  H       25.239     243.635      49.215
  H       26.938     242.069      48.500
  H       28.549     244.027      47.281
  H       22.513     249.066      51.494
  H       26.860     242.459      46.144
  H       21.756     248.967      49.929
  H       25.629     243.694      46.464
  P       29.469     241.744      49.283
  C       27.935     240.150      50.624
  O       28.616     240.391      49.399
  O       30.739     241.762      50.062
  O       29.784     241.808      47.706
  H       30.731     241.597      47.583
  H       27.410     239.220      50.563
  H       27.238     240.941      50.806
  H       28.644     240.108      51.424

 6  7  8  9  10  11  12  13  14  15  16  26  30  31  32  33  35 0
 6-311+G(2d,p)
 ****
 37  38 0
 6-311+G(2d,p)
 ****
 1  2  3  4  5  17  18  19  20  21  22  23  24  25 0
 3-21G
 ****
 27  28  29  34  36  39  40  41  42  43  44  45  46 0
 3-21G
 ****


