%nproc=1
%NoSave
%Mem=1900MB
#P OB98/GEN NMR

erre ene a

0 1
  C      806.470    -849.276    -449.410
  O      806.417    -848.701    -450.716
  P      805.027    -848.782    -451.529
  C      802.669    -847.770    -451.284
  O      804.051    -847.646    -450.952
  C      801.921    -846.452    -451.014
  O      802.004    -846.146    -449.584
  C      802.500    -845.223    -451.739
  O      801.990    -844.913    -453.026
  C      802.018    -844.078    -450.814
  O      800.666    -843.733    -451.134
  C      802.063    -844.708    -449.423
  N      803.917    -841.887    -445.558
  C      802.680    -842.031    -446.051
  N      802.267    -842.803    -447.084
  C      803.299    -843.478    -447.620
  C      804.619    -843.438    -447.210
  C      804.932    -842.590    -446.144
  N      806.203    -842.445    -445.620
  N      805.394    -844.270    -447.996
  C      804.544    -844.786    -448.870
  N      803.265    -844.356    -448.670
  O      804.428    -850.131    -451.662
  O      805.437    -848.180    -452.948
  H      800.112    -844.471    -450.805
  H      804.961    -848.668    -453.648
  H      801.897    -841.449    -445.557
  H      804.825    -845.476    -449.656
  H      801.212    -844.419    -448.808
  H      802.622    -843.177    -450.925
  H      803.587    -845.248    -451.741
  H      800.855    -846.577    -451.269
  H      802.220    -848.563    -450.688
  H      806.337    -841.774    -444.884
  H      806.973    -842.907    -446.094
  H      802.606    -848.070    -452.325
  P      802.613    -845.626    -454.341
  C      801.794    -847.669    -455.764
  O      801.751    -846.962    -454.542
  O      804.099    -845.834    -454.326
  O      802.103    -844.683    -455.522
  H      801.134    -844.715    -455.668
  H      801.326    -848.650    -455.629
  H      802.840    -847.824    -456.087
  H      801.258    -847.112    -456.548
  H      807.450    -849.144    -449.002
  H      806.247    -850.321    -449.471
  H      805.753    -848.794    -448.779

 3  4  5  6  7  8  9  10  11  12  22  25  29  30  31  32 0
 6-311+G(2d,p)
 ****
 33  36  37 0
 6-311+G(2d,p)
 ****
 1  2  13  14  15  16  17  18  19  20  21  23  24  26 0
 3-21G
 ****
 27  28  34  35  38  39  40  41  42  43  44  45  46  47  48 0
 3-21G
 ****


