%nproc=1
%NoSave
%Mem=1900MB
#P OB98/GEN NMR

erre ene a

0 1
  C       87.475     138.191     164.841
  O       86.608     137.225     165.407
  P       85.822     136.189     164.468
  C       83.882     136.376     162.778
  O       84.636     137.036     163.793
  C       82.730     137.261     162.295
  O       81.875     137.627     163.399
  C       83.176     138.577     161.668
  O       83.652     138.363     160.348
  C       81.897     139.396     161.759
  O       81.008     139.092     160.672
  C       81.299     138.922     163.101
  N       81.527     139.873     164.180
  C       80.509     140.814     164.389
  O       79.514     140.823     163.662
  N       80.670     141.750     165.384
  C       81.760     141.754     166.093
  N       81.865     142.711     167.056
  C       82.866     140.801     165.880
  C       82.688     139.898     164.920
  O       85.405     134.918     165.133
  O       86.836     135.962     163.247
  H       81.553     139.096     159.861
  H       87.602     135.391     163.514
  H       83.758     140.853     166.487
  H       83.450     139.163     164.695
  H       80.217     138.761     163.005
  H       82.096     140.474     161.721
  H       83.955     139.040     162.290
  H       82.135     136.685     161.576
  H       81.094     143.364     167.146
  H       83.473     135.454     163.201
  H       82.682     142.829     167.634
  H       84.541     136.114     161.945
  P       85.070     138.958     159.904
  C       86.252     141.234     160.036
  O       85.017     140.549     160.098
  O       85.574     138.493     158.580
  O       86.056     138.492     161.083
  H       86.886     138.156     160.689
  H       86.057     142.293     159.840
  H       86.880     140.836     159.233
  H       86.771     141.133     160.989
  H       87.904     138.786     165.620
  H       86.922     138.820     164.175
  H       88.254     137.697     164.299

 3  4  5  6  7  8  9  10  11  12  13  23  27  28  29  30  32 0
 6-311+G(2d,p)
 ****
 34  35 0
 6-311+G(2d,p)
 ****
 1  2  14  15  16  17  18  19  20  21  22  24  25  26 0
 3-21G
 ****
 31  33  36  37  38  39  40  41  42  43  44  45  46 0
 3-21G
 ****


