%nproc=1
%NoSave
%Mem=1900MB
#P OB98/GEN NMR

erre ene a

0 1
  C      104.033    -287.615    -117.009
  O      103.470    -286.322    -116.916
  H      103.254    -288.351    -117.223
  H      104.761    -287.625    -117.823
  H      104.544    -287.874    -116.076
  P      102.390    -286.090    -115.751
  C      103.828    -284.851    -113.982
  O      103.217    -286.070    -114.374
  C      103.656    -284.638    -112.481
  O      104.411    -283.487    -112.051
  C      102.220    -284.380    -112.032
  O      101.474    -285.585    -111.935
  C      102.459    -283.759    -110.665
  O      102.743    -284.794    -109.703
  C      103.715    -282.912    -110.914
  N      103.072    -278.265    -108.869
  C      103.434    -279.449    -108.325
  N      103.605    -280.636    -108.938
  C      103.378    -280.524    -110.257
  C      103.025    -279.386    -110.958
  C      102.865    -278.211    -110.209
  N      102.427    -277.020    -110.767
  N      102.868    -279.667    -112.303
  C      103.101    -280.960    -112.403
  N      103.422    -281.521    -111.195
  O      101.610    -287.490    -115.709
  O      101.461    -284.944    -115.966
  H      103.194    -285.510    -110.190
  H      100.789    -287.414    -116.229
  H      103.605    -279.440    -107.254
  H      103.048    -281.529    -113.324
  H      104.408    -282.939    -110.066
  H      101.596    -283.198    -110.293
  H      101.725    -283.647    -112.678
  H      104.072    -285.515    -111.966
  H      103.361    -284.020    -114.521
  H      101.917    -276.427    -110.117
  H      102.041    -277.112    -111.698
  H      104.891    -284.892    -114.240
  P       99.984    -285.493    -111.348
  C       99.059    -285.591    -113.763
  O       99.068    -284.892    -112.525
  O      100.089    -284.292    -110.296
  O       99.477    -286.735    -110.702
  H       99.797    -284.597    -109.415
  H       98.414    -285.087    -114.452
  H       98.705    -286.589    -113.607
  H      100.051    -285.623    -114.162

 6  7  8  9  10  11  12  13  14  15  25  28  32  33  34  35 0
 6-311+G(2d,p)
 ****
 36  39  40 0
 6-311+G(2d,p)
 ****
 1  2  3  4  5  16  17  18  19  20  21  22  23  24 0
 3-21G
 ****
 26  27  29  30  31  37  38  41  42  43  44  45  46  47  48 0
 3-21G
 ****


