%nproc=1
%NoSave
%Mem=1900MB
#P OB98/GEN NMR

erre ene a

0 1
  C      151.364    -896.541    1059.035
  O      151.553    -897.890    1058.594
  P      152.566    -898.818    1059.422
  C      150.716    -900.523    1060.101
  O      151.737    -899.628    1060.531
  C      149.333    -899.978    1060.465
  O      149.027    -898.758    1059.744
  C      148.194    -900.931    1060.141
  O      148.028    -901.900    1061.158
  C      147.004    -899.972    1060.130
  O      146.582    -899.703    1061.479
  C      147.606    -898.712    1059.497
  N      144.312    -897.209    1055.865
  C      144.233    -897.221    1057.224
  N      145.145    -897.651    1058.110
  C      146.237    -898.100    1057.496
  C      146.471    -898.165    1056.126
  C      145.446    -897.695    1055.291
  N      145.535    -897.681    1053.927
  N      147.720    -898.700    1055.867
  C      148.226    -898.947    1057.050
  N      147.380    -898.607    1058.070
  O      153.402    -897.763    1060.286
  O      153.465    -899.648    1058.559
  H      146.004    -900.446    1061.750
  H      154.317    -898.073    1060.391
  H      143.305    -896.820    1057.635
  H      149.215    -899.358    1057.230
  H      147.225    -897.797    1059.961
  H      146.142    -900.386    1059.605
  H      148.324    -901.382    1059.147
  H      149.327    -899.750    1061.539
  H      150.865    -901.509    1060.562
  H      144.777    -897.305    1053.393
  H      146.392    -898.020    1053.495
  H      150.805    -900.675    1059.025
  P      149.269    -902.888    1061.440
  C      149.799    -902.321    1063.910
  O      150.150    -902.160    1062.554
  O      150.136    -902.755    1060.099
  O      148.889    -904.302    1061.716
  H      150.620    -903.587    1059.919
  H      150.658    -902.031    1064.533
  H      149.548    -903.361    1064.136
  H      148.960    -901.681    1064.159
  H      150.666    -896.049    1058.390
  H      152.300    -896.023    1059.009
  H      150.985    -896.543    1060.036

 3  4  5  6  7  8  9  10  11  12  22  25  29  30  31  32 0
 6-311+G(2d,p)
 ****
 33  36  37 0
 6-311+G(2d,p)
 ****
 1  2  13  14  15  16  17  18  19  20  21  23  24  26 0
 3-21G
 ****
 27  28  34  35  38  39  40  41  42  43  44  45  46  47  48 0
 3-21G
 ****


