%nproc=1
%NoSave
%Mem=1900MB
#P OB98/GEN NMR

erre ene a

0 1
  C     -297.173    -341.364    -138.156
  O     -297.218    -340.210    -138.976
  H     -296.130    -341.584    -137.917
  H     -297.599    -342.216    -138.694
  H     -297.725    -341.197    -137.226
  P     -298.668    -339.583    -139.247
  C     -298.295    -337.786    -137.375
  O     -299.115    -338.819    -137.904
  C     -299.097    -336.494    -137.239
  O     -298.287    -335.440    -136.681
  C     -299.576    -335.917    -138.562
  O     -300.630    -336.660    -139.129
  C     -299.983    -334.512    -138.126
  O     -301.314    -334.494    -137.594
  C     -298.944    -334.201    -137.019
  N     -298.010    -333.172    -137.435
  C     -298.168    -331.926    -136.807
  O     -299.038    -331.776    -135.949
  N     -297.361    -330.890    -137.193
  C     -296.492    -331.064    -138.141
  N     -295.746    -329.987    -138.501
  C     -296.299    -332.357    -138.834
  C     -297.082    -333.361    -138.438
  O     -299.608    -340.880    -139.257
  O     -298.767    -338.748    -140.476
  H     -301.478    -333.577    -137.291
  H     -299.464    -341.474    -138.499
  H     -295.551    -332.455    -139.608
  H     -297.011    -334.343    -138.887
  H     -299.453    -333.856    -136.108
  H     -299.965    -333.810    -138.961
  H     -298.733    -335.823    -139.260
  H     -299.940    -336.684    -136.558
  H     -295.951    -329.106    -138.037
  H     -297.417    -337.624    -138.015
  H     -295.099    -329.985    -139.275
  H     -297.934    -338.115    -136.394
  P     -301.556    -336.045    -140.287
  C     -299.553    -336.077    -141.911
  O     -300.570    -335.282    -141.307
  O     -302.705    -335.221    -139.818
  O     -301.981    -337.330    -141.138
  H     -301.237    -337.831    -141.519
  H     -298.964    -335.467    -142.564
  H     -300.005    -336.868    -142.473
  H     -298.926    -336.493    -141.150

 6  7  8  9  10  11  12  13  14  15  16  26  30  31  32  33  35 0
 6-311+G(2d,p)
 ****
 37  38 0
 6-311+G(2d,p)
 ****
 1  2  3  4  5  17  18  19  20  21  22  23  24  25 0
 3-21G
 ****
 27  28  29  34  36  39  40  41  42  43  44  45  46 0
 3-21G
 ****


