%nproc=1
%NoSave
%Mem=1900MB
#P OB98/GEN NMR

erre ene a

0 1
  C      115.722     -35.140     -27.636
  O      115.176     -35.554     -28.871
  H      116.789     -35.374     -27.598
  H      115.596     -34.059     -27.538
  H      115.204     -35.632     -26.809
  P      115.295     -37.113     -29.228
  C      112.731     -37.465     -29.068
  O      114.014     -37.841     -28.585
  C      111.647     -38.234     -28.318
  O      111.698     -37.850     -26.920
  C      110.216     -37.986     -28.828
  O      109.612     -39.221     -29.222
  C      109.470     -37.449     -27.616
  O      108.146     -37.967     -27.496
  C      110.347     -37.872     -26.444
  N      107.583     -36.976     -22.259
  C      107.785     -38.106     -22.971
  N      108.617     -38.304     -24.013
  C      109.306     -37.183     -24.289
  C      109.226     -35.964     -23.638
  C      108.300     -35.875     -22.586
  N      108.053     -34.709     -21.897
  N      110.084     -35.045     -24.213
  C      110.638     -35.686     -25.221
  N      110.186     -36.975     -25.318
  O      116.509     -37.609     -28.309
  O      115.534     -37.415     -30.669
  H      107.676     -37.728     -28.318
  H      117.133     -38.134     -28.845
  H      107.194     -38.965     -22.668
  H      111.332     -35.258     -25.933
  H      110.122     -38.891     -26.107
  H      109.408     -36.357     -27.693
  H      110.182     -37.273     -29.660
  H      111.887     -39.303     -28.367
  H      112.658     -37.699     -30.136
  H      107.290     -34.706     -21.239
  H      108.503     -33.860     -22.208
  H      112.604     -36.385     -28.938
  P      109.976     -39.765     -30.692
  C      111.559     -41.557     -29.667
  O      111.403     -40.492     -30.593
  O      110.301     -38.421     -31.500
  O      108.885     -40.555     -31.334
  H      110.126     -38.552     -32.450
  H      112.559     -41.933     -29.721
  H      110.870     -42.340     -29.905
  H      111.366     -41.200     -28.677

 6  7  8  9  10  11  12  13  14  15  25  28  32  33  34  35 0
 6-311+G(2d,p)
 ****
 36  39  40 0
 6-311+G(2d,p)
 ****
 1  2  3  4  5  16  17  18  19  20  21  22  23  24 0
 3-21G
 ****
 26  27  29  30  31  37  38  41  42  43  44  45  46  47  48 0
 3-21G
 ****


