%nproc=1
%NoSave
%Mem=1900MB
#P OB98/GEN NMR

erre ene a

0 1
  C      420.464    1453.139    -350.457
  O      421.028    1452.392    -349.380
  P      420.365    1452.483    -347.916
  C      419.742    1450.015    -347.531
  O      419.254    1451.331    -347.785
  C      418.632    1448.964    -347.629
  O      417.645    1449.172    -346.574
  C      417.888    1448.946    -348.964
  O      417.564    1447.570    -349.262
  C      416.645    1449.725    -348.654
  O      415.600    1449.498    -349.594
  C      416.360    1449.240    -347.219
  N      415.446    1450.133    -346.485
  C      414.309    1449.554    -345.938
  O      414.039    1448.375    -346.176
  N      413.487    1450.349    -345.145
  C      413.705    1451.629    -345.083
  N      412.880    1452.369    -344.301
  C      414.819    1452.288    -345.805
  C      415.648    1451.485    -346.461
  O      419.921    1453.856    -347.521
  O      421.538    1451.957    -346.954
  H      415.533    1448.515    -349.767
  H      421.500    1452.447    -346.121
  H      414.923    1453.369    -345.788
  H      416.496    1451.879    -347.004
  H      415.924    1448.227    -347.235
  H      416.849    1450.811    -348.652
  H      418.459    1449.361    -349.807
  H      419.085    1447.981    -347.444
  H      412.118    1451.898    -343.833
  H      420.184    1449.995    -346.540
  H      413.023    1453.369    -344.146
  H      420.563    1449.797    -348.234
  P      418.321    1446.848    -350.465
  C      419.335    1444.964    -349.002
  O      419.572    1446.042    -349.860
  O      419.032    1448.087    -351.207
  O      417.439    1446.119    -351.456
  H      419.164    1447.846    -352.134
  H      420.261    1444.378    -348.912
  H      418.534    1444.316    -349.362
  H      419.078    1445.329    -347.999
  H      421.028    1452.960    -351.349
  H      420.492    1454.182    -350.221
  H      419.449    1452.835    -350.609

 3  4  5  6  7  8  9  10  11  12  13  23  27  28  29  30  32 0
 6-311+G(2d,p)
 ****
 34  35 0
 6-311+G(2d,p)
 ****
 1  2  14  15  16  17  18  19  20  21  22  24  25  26 0
 3-21G
 ****
 31  33  36  37  38  39  40  41  42  43  44  45  46 0
 3-21G
 ****


