%nproc=1
%NoSave
%Mem=1900MB
#P OB98/GEN NMR

erre ene a

0 1
  C     -894.090     995.362    -140.990
  O     -894.610     994.224    -141.655
  H     -894.790     995.659    -140.206
  H     -893.980     996.193    -141.691
  H     -893.120     995.135    -140.534
  P     -893.640     993.507    -142.718
  C     -894.710     991.292    -141.893
  O     -894.270     992.062    -143.010
  C     -896.080     990.657    -142.193
  O     -896.050     990.011    -143.484
  C     -896.500     989.596    -141.188
  O     -897.090     990.158    -140.023
  C     -897.540     988.833    -142.019
  O     -898.760     989.578    -142.049
  C     -896.870     988.824    -143.412
  N     -896.890     983.868    -144.510
  C     -897.950     984.747    -144.312
  N     -899.190     984.227    -144.424
  N     -897.800     986.014    -144.045
  C     -896.510     986.404    -143.950
  C     -895.370     985.624    -144.127
  C     -895.550     984.218    -144.436
  O     -894.660     983.419    -144.652
  N     -894.240     986.359    -143.963
  C     -894.670     987.579    -143.675
  N     -896.040     987.640    -143.641
  O     -892.330     993.167    -141.846
  O     -893.280     994.313    -143.923
  H     -899.200     989.449    -141.188
  H     -891.550     993.266    -142.410
  H     -897.060     982.900    -144.705
  H     -894.040     988.427    -143.487
  H     -897.610     988.861    -144.211
  H     -897.770     987.855    -141.591
  H     -899.380     983.249    -144.583
  H     -895.670     988.917    -140.939
  H     -900.000     984.849    -144.319
  H     -896.810     991.466    -142.240
  H     -894.810     991.940    -141.016
  H     -893.970     990.506    -141.682
  P     -896.620     989.592    -138.589
  C     -897.770     991.613    -137.443
  O     -897.640     990.201    -137.523
  O     -895.280     990.401    -138.315
  O     -896.410     988.121    -138.541
  H     -894.700     989.919    -137.689
  H     -898.486     991.863    -136.688
  H     -898.099     991.995    -138.387
  H     -896.823     992.045    -137.194

 6  7  8  9  10  11  12  13  14  15  26  29  33  34 0
 6-311+G(2d,p)
 ****
 36  38  39  40  41 0
 6-311+G(2d,p)
 ****
 1  2  3  4  5  16  17  18  19  20  21  22  23  24  25 0
 3-21G
 ****
 27  28  30  31  32  35  37  42  43  44  45  46  47 0
 3-21G
 ****
 48  49 0
 3-21G
 ****


