%nproc=1
%NoSave
%Mem=1900MB
#P OB98/GEN NMR

erre ene a

0 1
  C     -220.384      46.611    -448.893
  O     -219.801      45.628    -448.064
  H     -219.838      47.549    -448.754
  H     -221.428      46.773    -448.613
  H     -220.321      46.322    -449.944
  P     -220.306      44.111    -448.194
  C     -221.605      43.493    -446.054
  O     -221.684      44.005    -447.381
  C     -221.320      44.630    -445.074
  O     -222.249      45.718    -445.293
  C     -221.496      44.241    -443.614
  O     -220.411      43.457    -443.151
  C     -221.623      45.610    -442.965
  O     -220.335      46.203    -442.750
  C     -222.416      46.397    -444.034
  N     -223.830      46.524    -443.680
  C     -224.164      47.581    -442.843
  O     -223.344      48.389    -442.407
  N     -225.479      47.644    -442.460
  C     -226.432      46.701    -442.721
  O     -227.523      46.667    -442.158
  C     -226.036      45.639    -443.663
  C     -224.770      45.594    -444.086
  O     -219.293      43.063    -447.870
  O     -220.787      44.007    -449.721
  H     -220.100      43.546    -450.242
  H     -219.767      45.486    -442.405
  H     -225.723      48.388    -441.814
  H     -226.785      44.907    -443.949
  H     -224.447      44.803    -444.753
  H     -221.996      47.407    -444.154
  H     -222.129      45.552    -441.999
  H     -222.439      43.698    -443.482
  H     -220.304      45.003    -445.264
  H     -220.793      42.760    -446.008
  H     -222.550      42.995    -445.808
  P     -220.573      42.541    -441.842
  C     -219.203      43.321    -439.810
  O     -220.409      43.482    -440.553
  O     -219.740      41.303    -441.829
  O     -222.132      42.174    -441.818
  H     -222.229      41.212    -441.707
  H     -219.203      43.995    -438.979
  H     -218.365      43.533    -440.440
  H     -219.136      42.315    -439.453

 6  7  8  9  10  11  12  13  14  15  16  27  31  32  33  34  35 0
 6-311+G(2d,p)
 ****
 36  37 0
 6-311+G(2d,p)
 ****
 1  2  3  4  5  17  18  19  20  21  22  23  24  25 0
 3-21G
 ****
 26  28  29  30  38  39  40  41  42  43  44  45 0
 3-21G
 ****


