%nproc=1
%NoSave
%Mem=1900MB
#P OB98/GEN NMR

erre ene a

0 1
  C      164.152    -388.805      17.139
  O      164.669    -387.821      18.009
  H      163.920    -389.703      17.722
  H      164.887    -389.060      16.370
  H      163.232    -388.444      16.668
  P      165.175    -386.455      17.327
  C      163.571    -385.154      18.923
  O      163.959    -385.434      17.586
  C      162.136    -384.631      18.949
  O      161.222    -385.612      18.401
  C      161.598    -384.319      20.344
  O      162.080    -383.093      20.868
  C      160.111    -384.263      20.045
  O      159.800    -383.033      19.364
  C      159.957    -385.478      19.105
  N      159.633    -386.716      19.818
  C      158.312    -386.852      20.270
  O      157.481    -385.965      20.065
  N      157.967    -387.989      20.972
  C      158.852    -388.909      21.186
  N      158.453    -390.007      21.889
  C      160.250    -388.814      20.720
  C      160.566    -387.705      20.051
  O      165.051    -386.758      15.759
  O      166.514    -385.964      17.762
  H      160.086    -382.308      19.951
  H      165.203    -385.927      15.242
  H      160.958    -389.602      20.934
  H      161.575    -387.564      19.675
  H      159.180    -385.292      18.352
  H      159.491    -384.297      20.941
  H      161.792    -385.141      21.041
  H      162.088    -383.743      18.297
  H      157.506    -390.015      22.246
  H      164.254    -384.403      19.328
  H      159.099    -390.706      22.235
  H      163.633    -386.064      19.529
  P      162.957    -383.156      22.213
  C      165.041    -381.802      21.431
  O      164.499    -383.075      21.771
  O      162.791    -384.675      22.680
  O      162.546    -382.193      23.281
  H      162.791    -384.746      23.657
  H      166.070    -381.913      21.161
  H      164.962    -381.145      22.272
  H      164.498    -381.392      20.605

 6  7  8  9  10  11  12  13  14  15  16  26  30  31  32  33  35 0
 6-311+G(2d,p)
 ****
 37  38 0
 6-311+G(2d,p)
 ****
 1  2  3  4  5  17  18  19  20  21  22  23  24  25 0
 3-21G
 ****
 27  28  29  34  36  39  40  41  42  43  44  45  46 0
 3-21G
 ****


