%nproc=1
%NoSave
%Mem=1900MB
#P OB98/GEN NMR

erre ene a

0 1
  C      314.296      74.760     171.488
  O      313.612      73.587     171.884
  H      314.290      74.814     170.396
  H      315.334      74.724     171.828
  H      313.802      75.650     171.886
  P      313.388      73.313     173.448
  C      313.821      70.827     172.959
  O      312.968      71.770     173.590
  C      313.005      69.830     172.138
  O      312.346      68.909     173.045
  C      311.927      70.484     171.267
  O      311.849      69.772     170.032
  C      310.654      70.269     172.061
  O      309.495      70.246     171.230
  C      310.935      68.936     172.752
  N      306.413      67.630     174.585
  C      306.898      67.586     173.293
  N      306.047      67.154     172.339
  N      308.113      67.938     172.963
  C      308.862      68.338     174.019
  C      308.497      68.428     175.342
  C      307.145      68.048     175.693
  O      306.656      68.078     176.815
  N      309.531      68.903     176.111
  C      310.515      69.103     175.253
  N      310.155      68.785     173.971
  O      312.471      74.269     174.141
  O      314.862      73.350     174.064
  H      308.714      70.246     171.826
  H      315.037      74.211     174.489
  H      305.467      67.356     174.782
  H      311.497      69.480     175.506
  H      310.697      68.075     172.114
  H      310.536      71.075     172.796
  H      305.104      66.849     172.521
  H      312.120      71.544     171.076
  H      306.387      67.090     171.386
  H      313.695      69.234     171.528
  H      314.381      70.295     173.736
  H      314.530      71.355     172.311
  P      311.978      70.590     168.660
  C      310.647      68.732     167.474
  O      311.804      69.560     167.443
  O      313.157      71.500     168.559
  O      310.604      71.418     168.611
  H      310.758      72.254     168.129
  H      310.643      68.093     166.616
  H      309.770      69.345     167.467
  H      310.659      68.136     168.363

 6  7  8  9  10  11  12  13  14  15  26  29  33  34 0
 6-311+G(2d,p)
 ****
 36  38  39  40  41 0
 6-311+G(2d,p)
 ****
 1  2  3  4  5  16  17  18  19  20  21  22  23  24  25 0
 3-21G
 ****
 27  28  30  31  32  35  37  42  43  44  45  46  47 0
 3-21G
 ****
 48  49 0
 3-21G
 ****


