%nproc=1
%NoSave
%Mem=1900MB
#P OB98/GEN NMR

erre ene a

0 1
  C     -316.328    -122.292     182.782
  O     -316.833    -122.501     181.476
  P     -318.413    -122.716     181.313
  C     -318.292    -125.051     180.161
  O     -318.635    -123.676     180.051
  C     -318.505    -125.746     178.815
  O     -319.875    -125.600     178.384
  C     -317.660    -125.167     177.688
  O     -316.323    -125.637     177.750
  C     -318.418    -125.644     176.457
  O     -318.048    -126.990     176.117
  C     -319.881    -125.584     176.941
  N     -320.598    -124.430     176.414
  C     -321.666    -124.713     175.565
  O     -321.984    -125.862     175.251
  N     -322.332    -123.632     175.059
  C     -322.009    -122.322     175.267
  O     -322.612    -121.394     174.739
  C     -320.854    -122.081     176.148
  C     -320.207    -123.130     176.665
  O     -318.943    -121.293     180.806
  O     -319.111    -123.156     182.556
  H     -317.086    -126.982     175.958
  H     -319.825    -121.112     181.183
  H     -323.123    -123.815     174.465
  H     -320.569    -121.054     176.334
  H     -319.347    -122.976     177.305
  H     -320.415    -126.493     176.633
  H     -318.209    -125.024     175.581
  H     -317.689    -124.069     177.725
  H     -318.299    -126.816     178.939
  H     -318.921    -125.522     180.922
  H     -317.248    -125.135     180.475
  P     -315.211    -124.603     178.270
  C     -314.066    -124.432     175.929
  O     -313.963    -124.802     177.285
  O     -314.776    -125.299     179.645
  O     -315.729    -123.209     178.415
  H     -314.831    -126.268     179.597
  H     -314.688    -123.540     175.801
  H     -314.497    -125.259     175.360
  H     -313.065    -124.220     175.544
  H     -315.267    -122.165     182.738
  H     -316.561    -123.138     183.394
  H     -316.775    -121.415     183.201

 3  4  5  6  7  8  9  10  11  12  13  23  28  29  30  31  32 0
 6-311+G(2d,p)
 ****
 33  34 0
 6-311+G(2d,p)
 ****
 1  2  14  15  16  17  18  19  20  21  22  24  25  26 0
 3-21G
 ****
 27  35  36  37  38  39  40  41  42  43  44  45 0
 3-21G
 ****


