%nproc=1
%NoSave
%Mem=1900MB
#P OB98/GEN NMR

erre ene a

0 1
  C      318.922    -449.000     443.356
  O      319.289    -448.534     444.659
  P      318.968    -447.008     444.994
  C      318.392    -445.612     447.116
  O      318.893    -446.831     446.588
  C      318.505    -445.615     448.647
  O      317.515    -446.490     449.251
  C      319.850    -446.114     449.160
  O      320.855    -445.135     448.981
  C      319.509    -446.418     450.604
  O      319.496    -445.215     451.393
  C      318.078    -446.988     450.491
  N      316.877    -451.112     453.292
  C      316.832    -449.786     453.546
  N      317.170    -448.745     452.762
  C      317.596    -449.189     451.559
  C      317.706    -450.509     451.145
  C      317.336    -451.499     452.067
  N      317.403    -452.839     451.797
  N      318.182    -450.567     449.845
  C      318.377    -449.305     449.501
  N      318.023    -448.440     450.501
  O      317.446    -446.835     444.526
  O      319.882    -446.030     444.299
  H      320.413    -444.846     451.368
  H      317.406    -446.298     443.707
  H      316.465    -449.516     454.542
  H      318.776    -448.970     448.548
  H      317.428    -446.622     451.298
  H      320.219    -447.114     451.084
  H      320.139    -447.040     448.630
  H      318.321    -444.596     449.002
  H      317.346    -445.478     446.826
  H      317.197    -453.493     452.546
  H      317.815    -453.144     450.923
  H      318.964    -444.788     446.678
  P      322.263    -445.604     448.373
  C      323.969    -444.211     447.033
  O      323.050    -444.223     448.115
  O      321.845    -446.045     446.882
  O      322.991    -446.627     449.175
  H      321.256    -445.381     446.471
  H      324.415    -443.210     446.963
  H      323.455    -444.451     446.103
  H      324.778    -444.933     447.221
  H      319.189    -450.032     443.258
  H      319.437    -448.426     442.614
  H      317.866    -448.890     443.222

 3  4  5  6  7  8  9  10  11  12  22  25  29  30  31  32 0
 6-311+G(2d,p)
 ****
 33  36  37 0
 6-311+G(2d,p)
 ****
 1  2  13  14  15  16  17  18  19  20  21  23  24  26 0
 3-21G
 ****
 27  28  34  35  38  39  40  41  42  43  44  45  46  47  48 0
 3-21G
 ****


