%nproc=1
%NoSave
%Mem=1900MB
#P OB98/GEN NMR

erre ene a

0 1
  C     -214.951     585.579     110.780
  O     -215.810     585.953     111.837
  H     -213.980     586.054     110.929
  H     -215.362     585.915     109.822
  H     -214.811     584.492     110.759
  P     -217.266     585.288     111.931
  C     -219.500     585.904     110.800
  O     -218.087     585.784     110.645
  C     -220.115     586.474     109.521
  O     -219.674     587.836     109.316
  C     -219.723     585.715     108.249
  O     -220.436     584.497     108.157
  C     -220.066     586.756     107.193
  O     -221.480     586.773     106.927
  C     -219.625     588.066     107.886
  N     -218.289     588.508     107.465
  C     -218.194     589.844     107.068
  O     -219.146     590.616     107.046
  N     -216.945     590.237     106.643
  C     -215.856     589.428     106.501
  O     -214.835     589.770     105.913
  C     -216.007     588.061     107.011
  C     -217.197     587.664     107.461
  O     -217.971     585.452     113.235
  O     -216.993     583.743     111.599
  H     -216.978     583.234     112.428
  H     -221.701     585.899     106.559
  H     -216.873     591.187     106.299
  H     -215.142     587.403     106.981
  H     -217.338     586.648     107.809
  H     -220.340     588.871     107.673
  H     -219.565     586.563     106.243
  H     -218.639     585.540     108.238
  H     -221.206     586.489     109.640
  H     -219.708     586.576     111.630
  H     -219.912     584.913     111.022
  P     -219.776     583.214     107.462
  C     -219.536     582.300     105.079
  O     -220.269     583.152     105.934
  O     -219.950     581.929     108.213
  O     -218.219     583.587     107.328
  H     -217.684     582.876     107.739
  H     -219.952     582.340     104.094
  H     -219.586     581.297     105.447
  H     -218.515     582.618     105.048

 6  7  8  9  10  11  12  13  14  15  16  27  31  32  33  34  35 0
 6-311+G(2d,p)
 ****
 36  37 0
 6-311+G(2d,p)
 ****
 1  2  3  4  5  17  18  19  20  21  22  23  24  25 0
 3-21G
 ****
 26  28  29  30  38  39  40  41  42  43  44  45 0
 3-21G
 ****


