%nproc=1
%NoSave
%Mem=1900MB
#P OB98/GEN NMR

erre ene a

0 1
  C       74.919      99.627      11.673
  O       75.861      98.845      12.381
  H       73.913      99.285      11.933
  H       75.066      99.504      10.597
  H       75.017     100.682      11.946
  P       77.395      99.291      12.278
  C       79.184      99.357      10.356
  O       77.894      98.944      10.790
  C       79.717      98.381       9.310
  O       79.882      97.060       9.863
  C       78.781      98.167       8.132
  O       78.713      99.286       7.277
  C       79.415      96.939       7.496
  O       80.566      97.296       6.717
  C       79.832      96.128       8.748
  N       78.934      95.014       9.016
  C       79.207      93.831       8.316
  O       80.161      93.774       7.542
  N       78.371      92.756       8.492
  C       77.370      92.843       9.312
  N       76.576      91.746       9.434
  C       77.064      94.060      10.088
  C       77.874      95.098       9.889
  O       78.140      98.189      13.166
  O       77.678     100.702      12.679
  H       80.244      97.883       6.006
  H       77.936      97.276      12.905
  H       76.224      94.084      10.767
  H       77.720      96.029      10.417
  H       80.847      95.727       8.627
  H       78.726      96.422       6.826
  H       77.783      97.883       8.490
  H       80.702      98.740       8.981
  H       76.805      90.936       8.871
  H       79.874      99.433      11.201
  H       75.751      91.707      10.015
  H       79.081     100.356       9.922
  P       77.349      99.648       6.516
  C       75.947      98.396       4.758
  O       77.253      98.649       5.263
  O       77.177     101.090       6.174
  O       76.218      99.074       7.494
  H       76.271      98.115       7.658
  H       76.009      97.721       3.930
  H       75.505      99.316       4.436
  H       75.345      97.961       5.528

 6  7  8  9  10  11  12  13  14  15  16  26  30  31  32  33  35 0
 6-311+G(2d,p)
 ****
 37  38 0
 6-311+G(2d,p)
 ****
 1  2  3  4  5  17  18  19  20  21  22  23  24  25 0
 3-21G
 ****
 27  28  29  34  36  39  40  41  42  43  44  45  46 0
 3-21G
 ****


