%nproc=1
%NoSave
%Mem=1900MB
#P OB98/GEN NMR

erre ene a

0 1
  C       46.559     -72.433      23.607
  O       46.871     -73.353      22.560
  P       48.391     -73.377      22.046
  C       49.606     -74.645      23.953
  O       49.106     -74.693      22.624
  C       49.946     -76.043      24.485
  O       48.739     -76.792      24.787
  C       50.769     -76.884      23.506
  O       51.643     -77.709      24.281
  C       49.723     -77.767      22.851
  O       50.315     -78.927      22.273
  C       48.786     -78.027      24.042
  N       47.452     -78.467      23.639
  C       47.121     -79.800      23.888
  O       47.959     -80.571      24.361
  N       45.866     -80.244      23.557
  C       45.030     -79.439      22.977
  N       43.803     -79.939      22.671
  C       45.358     -78.039      22.641
  C       46.571     -77.626      23.001
  O       49.076     -72.182      22.862
  O       48.527     -73.177      20.571
  H       49.600     -79.464      21.868
  H       49.570     -71.603      22.253
  H       44.637     -77.412      22.139
  H       46.902     -76.618      22.801
  H       49.207     -78.797      24.702
  H       49.199     -77.213      22.063
  H       51.351     -76.287      22.798
  H       50.500     -75.924      25.424
  H       43.613     -80.902      22.925
  H       48.865     -74.185      24.610
  H       43.079     -79.403      22.219
  H       50.483     -73.991      23.979
  P       53.051     -77.099      24.743
  C       52.831     -75.546      26.776
  O       52.905     -76.885      26.325
  O       52.938     -75.590      24.207
  O       54.302     -77.752      24.263
  H       53.777     -75.121      24.367
  H       52.610     -75.549      27.847
  H       52.035     -75.010      26.253
  H       53.790     -75.045      26.618
  H       45.522     -72.515      23.857
  H       46.770     -71.436      23.280
  H       47.152     -72.659      24.469

 3  4  5  6  7  8  9  10  11  12  13  21  23  27  28  29  30  32 0
 6-311+G(2d,p)
 ****
 34  35 0
 6-311+G(2d,p)
 ****
 1  2  14  15  16  17  18  19  20  22  24  25  26 0
 3-21G
 ****
 31  33  36  37  38  39  40  41  42  43  44  45  46 0
 3-21G
 ****


