%nproc=1
%NoSave
%Mem=1900MB
#P OB98/GEN NMR

erre ene a

0 1
  C      -17.033     211.443      44.596
  O      -16.788     210.703      45.776
  H      -16.470     210.991      43.777
  H      -16.704     212.479      44.721
  H      -18.098     211.416      44.352
  P      -17.483     211.240      47.118
  C      -15.442     212.675      47.767
  O      -16.809     212.677      47.370
  C      -14.938     214.108      47.944
  O      -13.509     214.065      48.196
  C      -15.163     214.994      46.713
  O      -15.461     216.322      47.142
  C      -13.808     214.983      46.027
  O      -13.620     216.112      45.181
  C      -12.868     214.915      47.230
  N       -8.789     215.753      44.301
  C       -9.858     216.519      44.602
  N      -10.893     216.225      45.415
  C      -10.719     215.018      45.987
  C       -9.684     214.125      45.779
  C       -8.684     214.532      44.877
  N       -7.609     213.745      44.535
  N       -9.887     212.973      46.512
  C      -11.021     213.171      47.160
  N      -11.569     214.387      46.856
  O      -17.446     210.308      48.282
  O      -18.946     211.633      46.600
  H      -12.686     216.122      44.879
  H      -18.905     212.144      45.770
  H       -9.893     217.493      44.121
  H      -11.489     212.466      47.840
  H      -12.699     215.900      47.688
  H      -13.711     214.082      45.410
  H      -15.956     214.628      46.061
  H      -15.405     214.540      48.836
  H      -14.833     212.163      47.014
  H       -6.937     214.116      43.882
  H       -7.507     212.833      44.958
  H      -15.367     212.124      48.711
  P      -16.835     217.004      46.674
  C      -15.902     218.175      44.577
  O      -16.797     217.193      45.079
  O      -17.253     218.211      47.444
  O      -17.897     215.814      46.852
  H      -18.719     216.176      47.237
  H      -15.968     218.206      43.509
  H      -14.902     217.927      44.865
  H      -16.162     219.132      44.978

 6  7  8  9  10  11  12  13  14  15  25  28  32  33  34  35 0
 6-311+G(2d,p)
 ****
 36  39  40 0
 6-311+G(2d,p)
 ****
 1  2  3  4  5  16  17  18  19  20  21  22  23  24 0
 3-21G
 ****
 26  27  29  30  31  37  38  41  42  43  44  45  46  47 0
 3-21G
 ****
 48 0
 3-21G
 ****


