%nproc=1
%NoSave
%Mem=1900MB
#P OB98/GEN NMR

erre ene a

0 1
  C       64.453    -202.198    -347.898
  O       64.499    -201.101    -347.009
  H       63.453    -202.293    -348.328
  H       65.170    -202.028    -348.706
  H       64.723    -203.120    -347.377
  P       63.488    -201.135    -345.764
  C       64.158    -201.161    -343.260
  O       64.288    -201.785    -344.529
  C       65.539    -200.890    -342.667
  O       66.272    -202.140    -342.626
  C       66.383    -199.869    -343.450
  O       66.756    -198.779    -342.601
  C       67.642    -200.632    -343.833
  O       68.831    -199.853    -343.712
  C       67.646    -201.815    -342.871
  N       72.233    -203.529    -344.282
  C       71.870    -202.552    -343.422
  N       70.631    -202.217    -343.009
  C       69.712    -203.026    -343.558
  C       69.928    -204.079    -344.432
  C       71.262    -204.310    -344.811
  N       71.627    -205.268    -345.731
  N       68.735    -204.674    -344.790
  C       67.806    -203.968    -344.177
  N       68.349    -202.949    -343.437
  O       62.441    -202.277    -346.174
  O       62.806    -199.844    -345.465
  H       69.580    -200.459    -343.873
  H       61.531    -201.954    -346.032
  H       72.683    -201.956    -343.016
  H       66.738    -204.117    -344.267
  H       68.111    -201.565    -341.910
  H       67.554    -200.966    -344.874
  H       65.867    -199.487    -344.340
  H       65.410    -200.558    -341.630
  H       63.604    -201.820    -342.581
  H       72.588    -205.287    -346.032
  H       70.898    -205.780    -346.212
  H       63.595    -200.228    -343.376
  P       65.594    -197.732    -342.220
  C       63.134    -198.324    -341.603
  O       64.517    -198.517    -341.326
  O       64.834    -197.521    -343.613
  O       66.098    -196.449    -341.654
  H       64.411    -196.642    -343.632
  H       62.549    -198.911    -340.926
  H       62.926    -198.626    -342.608
  H       62.887    -197.290    -341.483

 6  7  8  9  10  11  12  13  14  15  25  28  32  33  34  35 0
 6-311+G(2d,p)
 ****
 36  39  40 0
 6-311+G(2d,p)
 ****
 1  2  3  4  5  16  17  18  19  20  21  22  23  24 0
 3-21G
 ****
 26  27  29  30  31  37  38  41  42  43  44  45  46  47  48 0
 3-21G
 ****


