%nproc=1
%NoSave
%Mem=1900MB
#P OB98/GEN NMR

erre ene a

0 1
  C     -100.718     259.805    -762.392
  O     -101.975     260.039    -762.987
  H     -100.721     260.227    -761.385
  H      -99.933     260.297    -762.981
  H     -100.505     258.735    -762.319
  P     -102.359     259.252    -764.331
  C     -104.649     258.383    -763.497
  O     -103.959     259.224    -764.416
  C     -106.101     258.851    -763.315
  O     -106.121     260.008    -762.424
  C     -106.714     259.304    -764.650
  O     -108.132     259.136    -764.663
  C     -106.392     260.795    -764.670
  O     -107.267     261.546    -765.515
  C     -106.513     261.161    -763.186
  N     -105.963     266.230    -763.300
  C     -106.859     265.428    -763.990
  N     -107.720     266.069    -764.815
  N     -106.886     264.129    -763.898
  C     -105.921     263.619    -763.092
  C     -104.963     264.307    -762.375
  C     -104.960     265.756    -762.463
  O     -104.180     266.501    -761.893
  N     -104.140     263.450    -761.683
  C     -104.598     262.249    -761.976
  N     -105.694     262.296    -762.811
  O     -102.008     257.726    -763.986
  O     -101.654     259.715    -765.571
  H     -108.166     261.443    -765.159
  H     -101.863     257.216    -764.800
  H     -106.005     267.228    -763.385
  H     -104.180     261.313    -761.610
  H     -107.545     261.390    -762.930
  H     -105.386     260.924    -765.057
  H     -107.599     267.039    -765.057
  H     -106.280     258.803    -765.505
  H     -108.161     265.496    -765.544
  H     -106.690     258.064    -762.824
  H     -104.105     258.442    -762.552
  H     -104.615     257.347    -763.831
  P     -108.888     259.189    -766.074
  C     -109.682     256.669    -766.257
  O     -109.997     258.041    -766.143
  O     -107.778     258.703    -767.122
  O     -109.447     260.540    -766.431
  H     -107.547     259.430    -767.741
  H     -110.586     256.097    -766.285
  H     -109.094     256.367    -765.416
  H     -109.128     256.504    -767.157

 6  7  8  9  10  11  12  13  14  15  26  29  33  34 0
 6-311+G(2d,p)
 ****
 36  38  39  40  41 0
 6-311+G(2d,p)
 ****
 1  2  3  4  5  16  17  18  19  20  21  22  23  24  25 0
 3-21G
 ****
 27  28  30  31  32  35  37  42  43  44  45  46  47 0
 3-21G
 ****
 48  49 0
 3-21G
 ****


