%nproc=1
%NoSave
%Mem=1900MB
#P OB98/GEN NMR

erre ene a

0 1
  C     -330.656     390.403     276.180
  O     -331.461     391.245     275.368
  H     -329.957     391.026     276.740
  H     -330.087     389.716     275.551
  H     -331.263     389.835     276.892
  P     -332.762     390.618     274.665
  C     -331.468     390.083     272.500
  O     -332.541     390.801     273.082
  C     -331.888     389.476     271.149
  O     -332.861     388.432     271.385
  C     -332.511     390.492     270.187
  O     -332.194     390.066     268.846
  C     -333.993     390.296     270.449
  O     -334.795     390.819     269.415
  C     -334.048     388.770     270.645
  N     -335.275     388.345     271.322
  C     -336.436     388.296     270.545
  O     -336.461     388.629     269.357
  N     -337.567     387.900     271.184
  C     -337.678     387.605     272.519
  O     -338.730     387.288     273.053
  C     -336.438     387.712     273.290
  C     -335.300     388.074     272.671
  O     -334.070     391.118     275.175
  O     -332.600     389.038     274.863
  H     -335.652     390.345     269.372
  H     -333.484     388.621     274.914
  H     -338.408     387.850     270.635
  H     -336.487     387.499     274.354
  H     -334.377     388.151     273.220
  H     -333.999     388.263     269.673
  H     -334.289     390.808     271.382
  H     -332.172     391.513     270.356
  H     -331.009     388.993     270.698
  H     -331.175     389.284     273.191
  H     -330.621     390.757     272.362
  P     -331.077     390.810     267.969
  C     -332.894     391.707     266.388
  O     -331.644     391.031     266.480
  O     -329.726     390.148     268.026
  O     -330.989     392.294     268.567
  H     -330.102     392.663     268.434
  H     -333.175     391.799     265.360
  H     -332.806     392.681     266.822
  H     -333.641     391.149     266.913

 6  7  8  9  10  11  12  13  14  15  16  26  31  32  33  34  35 0
 6-311+G(2d,p)
 ****
 36  37 0
 6-311+G(2d,p)
 ****
 1  2  3  4  5  17  18  19  20  21  22  23  24  25 0
 3-21G
 ****
 27  28  29  30  38  39  40  41  42  43  44  45 0
 3-21G
 ****


