%nproc=1
%NoSave
%Mem=1900MB
#P OB98/GEN NMR

erre ene a

0 1
  C      507.397     137.380     -31.094
  O      507.185     138.321     -32.125
  H      508.440     137.055     -31.119
  H      506.756     136.510     -31.262
  H      507.185     137.815     -30.115
  P      505.861     139.220     -32.040
  C      507.396     141.309     -32.213
  O      506.324     140.673     -31.532
  C      507.835     142.564     -31.464
  O      506.750     143.538     -31.510
  C      508.185     142.324     -29.983
  O      509.284     143.170     -29.624
  C      506.947     142.822     -29.261
  O      507.216     143.191     -27.913
  C      506.544     143.990     -30.156
  N      503.672     146.769     -27.120
  C      505.047     146.701     -27.244
  N      505.776     147.442     -26.385
  N      505.656     145.963     -28.131
  C      504.809     145.285     -28.942
  C      503.432     145.262     -28.919
  C      502.769     146.071     -27.919
  O      501.557     146.153     -27.749
  N      502.941     144.397     -29.868
  C      504.019     143.886     -30.446
  N      505.173     144.393     -29.915
  O      505.100     138.604     -30.773
  O      505.004     139.216     -33.258
  H      507.250     142.375     -27.373
  H      504.449     137.940     -31.068
  H      503.255     147.339     -26.406
  H      504.014     143.141     -31.227
  H      507.171     144.878     -29.991
  H      506.173     142.043     -29.260
  H      505.380     148.062     -25.691
  H      508.428     141.283     -29.748
  H      506.786     147.435     -26.488
  H      508.686     143.012     -31.992
  H      507.063     141.592     -33.218
  H      508.230     140.607     -32.305
  P      510.522     142.509     -28.851
  C      511.870     142.537     -31.075
  O      511.479     141.797     -29.927
  O      509.854     141.269     -28.085
  O      511.207     143.431     -27.902
  H      510.300     141.131     -27.230
  H      512.501     141.932     -31.692
  H      512.403     143.413     -30.770
  H      511.000     142.824     -31.628

 6  7  8  9  10  11  12  13  14  15  26  29  33  34 0
 6-311+G(2d,p)
 ****
 36  38  39  40  41 0
 6-311+G(2d,p)
 ****
 1  2  3  4  5  16  17  18  19  20  21  22  23  24  25 0
 3-21G
 ****
 27  28  30  31  32  35  37  42  43  44  45  46  47 0
 3-21G
 ****
 48  49 0
 3-21G
 ****


