%nproc=1
%NoSave
%Mem=1900MB
#P OB98/GEN NMR

erre ene a

0 1
  C     -761.203    1984.313    1461.213
  O     -762.137    1985.008    1462.037
  P     -763.320    1985.788    1461.275
  C     -763.120    1987.445    1463.316
  O     -763.956    1986.813    1462.360
  C     -763.943    1988.051    1464.436
  O     -764.550    1989.261    1464.006
  C     -765.099    1987.157    1464.936
  O     -764.658    1986.090    1465.742
  C     -765.951    1988.211    1465.637
  O     -765.382    1988.462    1466.960
  C     -765.764    1989.452    1464.750
  N     -769.004    1992.813    1462.575
  C     -768.060    1992.951    1463.525
  N     -767.235    1992.030    1464.082
  C     -767.513    1990.830    1463.527
  C     -768.462    1990.495    1462.554
  C     -769.245    1991.521    1462.089
  N     -770.217    1991.400    1461.125
  N     -768.433    1989.138    1462.293
  C     -767.485    1988.661    1463.076
  N     -766.891    1989.606    1463.798
  O     -764.442    1984.670    1461.124
  O     -762.962    1986.434    1459.957
  H     -766.045    1988.977    1467.479
  H     -764.951    1984.780    1460.276
  H     -767.909    1993.955    1463.884
  H     -767.177    1987.594    1463.085
  H     -765.695    1990.365    1465.339
  H     -767.006    1987.874    1465.798
  H     -765.685    1986.780    1464.054
  H     -763.237    1988.230    1465.287
  H     -762.533    1988.218    1462.813
  H     -770.836    1992.171    1460.953
  H     -770.466    1990.452    1460.861
  H     -762.398    1986.682    1463.694
  P     -765.251    1984.633    1465.435
  C     -764.953    1984.178    1467.952
  O     -764.724    1983.738    1466.638
  O     -764.374    1984.180    1464.167
  O     -766.738    1984.610    1465.236
  H     -763.416    1984.287    1464.354
  H     -764.550    1983.465    1468.661
  H     -766.049    1984.297    1468.104
  H     -764.467    1985.149    1468.126
  H     -760.469    1983.837    1461.829
  H     -760.722    1985.007    1460.556
  H     -761.718    1983.574    1460.636

 3  4  5  6  7  8  9  10  11  12  22  25  29  30  31  32 0
 6-311+G(2d,p)
 ****
 33  36  37 0
 6-311+G(2d,p)
 ****
 1  2  13  14  15  16  17  18  19  20  21  23  24  26 0
 3-21G
 ****
 27  28  34  35  38  39  40  41  42  43  44  45  46  47  48 0
 3-21G
 ****


