%nproc=1
%NoSave
%Mem=1900MB
#P OB98/GEN NMR

erre ene a

0 1
  C     -136.707     765.497    -401.493
  O     -137.433     766.486    -402.202
  P     -139.017     766.364    -402.418
  C     -140.021     768.672    -403.008
  O     -139.400     767.492    -403.499
  C     -139.972     769.779    -404.087
  O     -138.594     770.222    -404.213
  C     -140.440     769.339    -405.482
  O     -141.104     770.471    -406.082
  C     -139.162     769.023    -406.196
  O     -139.278     769.072    -407.609
  C     -138.219     770.102    -405.609
  N     -136.807     769.736    -405.755
  C     -136.105     770.317    -406.813
  O     -136.665     771.060    -407.615
  N     -134.768     770.025    -406.947
  C     -134.205     769.184    -406.138
  N     -132.861     768.969    -406.276
  C     -134.942     768.480    -405.062
  C     -136.208     768.822    -404.918
  O     -139.829     766.402    -401.172
  O     -139.202     765.025    -403.271
  H     -139.578     769.978    -407.860
  H     -139.239     764.205    -402.715
  H     -134.427     767.760    -404.438
  H     -136.819     768.383    -404.150
  H     -138.407     771.076    -406.092
  H     -138.817     768.011    -405.932
  H     -141.146     768.500    -405.430
  H     -140.552     770.625    -403.729
  H     -132.367     769.585    -406.915
  H     -139.488     769.009    -402.124
  H     -132.309     768.597    -405.510
  H     -141.067     768.459    -402.735
  P     -142.348     770.188    -407.064
  C     -144.090     771.992    -406.344
  O     -143.118     771.590    -407.288
  O     -143.367     769.428    -406.081
  O     -142.087     769.363    -408.269
  H     -143.964     768.851    -406.605
  H     -144.490     772.969    -406.639
  H     -143.627     772.115    -405.349
  H     -144.902     771.268    -406.285
  H     -135.672     765.767    -401.463
  H     -136.815     764.553    -401.986
  H     -137.086     765.424    -400.495

 3  4  5  6  7  8  9  10  11  12  13  23  27  28  29  30  32 0
 6-311+G(2d,p)
 ****
 34  35 0
 6-311+G(2d,p)
 ****
 1  2  14  15  16  17  18  19  20  21  22  24  25  26 0
 3-21G
 ****
 31  33  36  37  38  39  40  41  42  43  44  45  46 0
 3-21G
 ****


