%nproc=1
%NoSave
%Mem=1900MB
#P OB98/GEN NMR

erre ene a

0 1
  C     -293.211      52.763     229.076
  O     -292.943      54.172     229.004
  P     -294.023      55.054     228.208
  C     -292.865      54.931     225.889
  O     -294.008      54.597     226.667
  C     -292.709      54.022     224.671
  O     -293.870      54.121     223.796
  C     -291.478      54.332     223.816
  O     -290.995      53.086     223.289
  C     -292.052      55.149     222.677
  O     -291.183      55.175     221.546
  C     -293.377      54.406     222.460
  N     -295.174      55.289     217.814
  C     -294.089      54.521     218.232
  N     -293.427      53.872     217.269
  N     -293.702      54.422     219.479
  C     -294.498      55.113     220.339
  C     -295.593      55.884     220.066
  C     -295.998      56.023     218.679
  O     -296.945      56.681     218.261
  N     -296.147      56.413     221.211
  C     -295.338      55.995     222.180
  N     -294.353      55.163     221.704
  O     -293.370      56.516     228.192
  O     -295.379      55.066     228.850
  H     -291.653      55.628     220.816
  H     -293.775      57.071     228.879
  H     -295.407      55.338     216.847
  H     -295.436      56.234     223.214
  H     -293.236      53.447     221.931
  H     -292.233      56.186     223.004
  H     -293.705      53.857     216.292
  H     -290.669      54.851     224.350
  H     -292.657      53.256     217.539
  H     -292.662      52.983     225.032
  H     -291.964      54.862     226.513
  H     -292.937      55.990     225.588
  P     -289.633      52.482     223.907
  C     -287.613      53.102     222.388
  O     -288.456      53.474     223.473
  O     -289.379      51.189     222.997
  O     -289.706      52.129     225.353
  H     -289.029      50.468     223.549
  H     -287.216      54.020     221.942
  H     -288.176      52.539     221.631
  H     -286.794      52.501     222.764
  H     -292.431      52.279     229.626
  H     -293.255      52.357     228.087
  H     -294.147      52.603     229.569

 3  4  5  6  7  8  9  10  11  12  23  26  30  31 0
 6-311+G(2d,p)
 ****
 33  35  36  37  38 0
 6-311+G(2d,p)
 ****
 1  2  13  14  15  16  17  18  19  20  21  22  24  25 0
 3-21G
 ****
 27  28  29  32  34  39  40  41  42  43  44  45  46  47  48  49 0
 3-21G
 ****


