%nproc=1
%NoSave
%Mem=1900MB
#P OB98/GEN NMR

erre ene a

0 1
  C     -267.514     349.459    -324.077
  O     -267.203     348.193    -324.625
  H     -268.581     349.485    -323.840
  H     -267.297     350.253    -324.796
  H     -266.947     349.624    -323.157
  P     -265.708     347.926    -325.132
  C     -264.519     347.021    -323.020
  O     -264.755     348.144    -323.864
  C     -263.030     346.882    -322.716
  O     -262.277     346.758    -323.939
  C     -262.429     348.073    -321.977
  O     -262.809     348.058    -320.617
  C     -260.951     347.848    -322.247
  O     -260.417     346.832    -321.384
  C     -260.981     347.359    -323.716
  N     -260.725     348.416    -324.689
  C     -259.523     349.115    -324.535
  O     -258.754     348.835    -323.615
  N     -259.233     350.121    -325.424
  C     -260.045     350.381    -326.398
  N     -259.698     351.386    -327.247
  C     -261.305     349.646    -326.614
  C     -261.588     348.696    -325.726
  O     -265.284     348.672    -326.361
  O     -265.656     346.342    -325.356
  H     -260.551     347.156    -320.473
  H     -265.852     346.122    -326.286
  H     -261.947     349.889    -327.448
  H     -262.495     348.109    -325.812
  H     -260.235     346.569    -323.870
  H     -260.358     348.750    -322.082
  H     -262.730     349.007    -322.462
  H     -262.887     345.952    -322.146
  H     -258.811     351.849    -327.069
  H     -264.879     346.136    -323.555
  H     -260.165     351.566    -328.122
  H     -265.087     347.113    -322.087
  P     -263.553     349.307    -319.941
  C     -265.332     347.791    -318.871
  O     -265.086     348.861    -319.771
  O     -263.352     350.613    -320.630
  O     -263.020     349.290    -318.433
  H     -262.104     349.662    -318.386
  H     -266.381     347.584    -318.841
  H     -264.994     348.063    -317.893
  H     -264.806     346.919    -319.201

 6  7  8  9  10  11  12  13  14  15  16  26  30  31  32  33  35 0
 6-311+G(2d,p)
 ****
 37  38 0
 6-311+G(2d,p)
 ****
 1  2  3  4  5  17  18  19  20  21  22  23  24  25 0
 3-21G
 ****
 27  28  29  34  36  39  40  41  42  43  44  45  46 0
 3-21G
 ****


