%nproc=1
%NoSave
%Mem=1900MB
#P OB98/GEN NMR

erre ene a

0 1
  C      -23.719      75.439     -73.318
  O      -24.272      74.367     -72.577
  H      -23.404      76.221     -72.621
  H      -24.471      75.854     -73.996
  H      -22.849      75.098     -73.886
  P      -24.822      73.120     -73.428
  C      -26.545      72.930     -75.360
  O      -26.120      73.653     -74.211
  C      -28.034      73.151     -75.606
  O      -28.826      72.355     -74.693
  C      -28.495      74.592     -75.437
  O      -28.245      75.352     -76.608
  C      -29.980      74.401     -75.165
  O      -30.718      74.196     -76.388
  C      -29.988      73.133     -74.300
  N      -32.547      75.121     -70.428
  C      -32.906      74.971     -71.752
  N      -34.112      75.476     -72.107
  N      -32.156      74.390     -72.649
  C      -30.967      73.966     -72.156
  C      -30.502      74.042     -70.863
  C      -31.359      74.658     -69.873
  O      -31.126      74.764     -68.673
  N      -29.254      73.482     -70.753
  C      -28.951      73.106     -71.979
  N      -29.953      73.393     -72.872
  O      -25.440      72.151     -72.312
  O      -23.806      72.417     -74.263
  H      -30.549      74.938     -76.991
  H      -25.352      71.226     -72.609
  H      -33.176      75.561     -69.780
  H      -28.028      72.627     -72.270
  H      -30.873      72.511     -74.489
  H      -30.418      75.278     -74.681
  H      -34.564      76.201     -71.565
  H      -28.021      75.052     -74.559
  H      -34.373      75.389     -73.079
  H      -28.256      72.793     -76.622
  H      -26.360      71.861     -75.198
  H      -25.968      73.265     -76.229
  P      -27.498      76.764     -76.437
  C      -28.260      79.160     -75.748
  O      -28.645      77.852     -76.156
  O      -27.022      77.112     -77.925
  O      -26.363      76.758     -75.473
  H      -26.329      77.803     -77.903
  H      -29.134      79.760     -75.603
  H      -27.645      79.603     -76.503
  H      -27.712      79.101     -74.831

 6  7  8  9  10  11  12  13  14  15  26  29  33  34 0
 6-311+G(2d,p)
 ****
 36  38  39  40  41 0
 6-311+G(2d,p)
 ****
 1  2  3  4  5  16  17  18  19  20  21  22  23  24  25 0
 3-21G
 ****
 27  28  30  31  32  35  37  42  43  44  45  46  47 0
 3-21G
 ****
 48  49 0
 3-21G
 ****


