%nproc=1
%NoSave
%Mem=1900MB
#P OB98/GEN NMR

erre ene a

0 1
  C       51.581    -450.332     169.541
  O       52.242    -449.447     170.456
  P       53.571    -448.628     170.086
  C       52.410    -446.314     170.024
  O       53.133    -447.298     169.296
  C       51.981    -445.164     169.108
  O       51.452    -445.685     167.864
  C       50.864    -444.284     169.645
  O       51.303    -443.427     170.682
  C       50.414    -443.561     168.377
  O       51.235    -442.416     168.110
  C       50.641    -444.632     167.294
  N       49.401    -445.162     166.750
  C       49.187    -444.984     165.382
  O       49.983    -444.335     164.705
  N       48.061    -445.534     164.817
  C       47.182    -446.119     165.570
  N       46.097    -446.660     164.952
  C       47.303    -446.205     167.036
  C       48.428    -445.714     167.555
  O       54.604    -449.433     169.371
  O       54.130    -448.076     171.479
  H       55.096    -447.943     171.415
  H       51.110    -441.795     168.854
  H       46.525    -446.660     167.631
  H       48.606    -445.749     168.626
  H       51.241    -444.217     166.475
  H       49.383    -443.208     168.446
  H       50.047    -444.919     170.010
  H       52.871    -444.558     168.884
  H       46.048    -446.590     163.943
  H       53.061    -445.915     170.810
  H       45.364    -447.153     165.442
  H       51.542    -446.783     170.499
  P       50.815    -443.773     172.172
  C       53.251    -444.328     172.879
  O       51.903    -444.755     172.823
  O       49.541    -444.717     171.942
  O       50.468    -442.583     173.002
  H       48.855    -444.505     172.602
  H       53.736    -444.822     173.729
  H       53.329    -443.246     173.011
  H       53.764    -444.620     171.962
  H       50.722    -450.759     170.015
  H       52.253    -451.112     169.251
  H       51.275    -449.785     168.674

 3  4  5  6  7  8  9  10  11  12  13  24  27  28  29  30  32 0
 6-311+G(2d,p)
 ****
 34  35 0
 6-311+G(2d,p)
 ****
 1  2  14  15  16  17  18  19  20  21  22  23  25  26 0
 3-21G
 ****
 31  33  36  37  38  39  40  41  42  43  44  45  46 0
 3-21G
 ****


