%nproc=1
%NoSave
%Mem=1900MB
#P OB98/GEN NMR

erre ene a

0 1
  C     1840.615     508.179     776.870
  O     1839.585     509.170     776.826
  P     1839.238     509.841     775.411
  C     1836.891     508.581     775.374
  O     1838.130     508.849     774.715
  C     1835.811     509.455     774.804
  O     1835.435     509.031     773.472
  C     1834.488     509.417     775.627
  O     1834.582     510.220     776.833
  C     1833.488     509.949     774.616
  O     1833.593     511.416     774.497
  C     1834.039     509.336     773.287
  N     1833.272     508.161     772.874
  C     1832.058     508.366     772.176
  O     1831.667     509.545     771.986
  N     1831.349     507.261     771.817
  C     1831.710     505.966     772.097
  O     1831.014     505.040     771.750
  C     1832.949     505.788     772.841
  C     1833.698     506.842     773.190
  O     1840.607     509.522     774.609
  O     1838.852     511.280     775.523
  H     1841.080     508.722     774.946
  H     1833.519     511.767     775.400
  H     1830.508     507.422     771.319
  H     1833.281     504.759     773.067
  H     1834.593     506.732     773.714
  H     1834.019     510.052     772.431
  H     1832.489     509.694     774.791
  H     1834.233     508.370     775.860
  H     1836.166     510.514     774.727
  H     1836.996     508.760     776.457
  H     1836.647     507.518     775.238
  P     1833.753     509.674     778.086
  C     1835.672     508.333     779.344
  O     1834.519     508.281     778.537
  O     1832.372     509.200     777.387
  O     1833.617     510.711     779.212
  H     1832.527     508.742     776.570
  H     1835.753     507.330     779.783
  H     1835.540     509.099     780.162
  H     1836.549     508.555     778.772
  H     1840.730     507.828     777.874
  H     1841.536     508.607     776.534
  H     1840.350     507.360     776.234

 3  4  5  6  7  8  9  10  11  12  13  24  28  29  30  31  32 0
 6-311+G(2d,p)
 ****
 33  34 0
 6-311+G(2d,p)
 ****
 1  2  14  15  16  17  18  19  20  21  22  23  25  26  27 0
 3-21G
 ****
 35  36  37  38  39  40  41  42  43  44  45 0
 3-21G
 ****


