%nproc=1
%NoSave
%Mem=1900MB
#P OB98/GEN NMR

erre ene a

0 1
  C      -35.733      -1.137     -10.117
  O      -35.300      -0.456     -11.277
  H      -36.513      -1.849     -10.399
  H      -36.147      -0.429      -9.394
  H      -34.899      -1.684      -9.669
  P      -34.190       0.685     -11.075
  C      -35.849       2.675     -11.274
  O      -34.945       1.954     -10.448
  C      -36.183       4.012     -10.622
  O      -36.675       3.795      -9.280
  C      -34.990       4.945     -10.471
  O      -34.661       5.600     -11.683
  C      -35.504       5.900      -9.406
  O      -36.308       6.944      -9.979
  C      -36.356       4.973      -8.511
  N      -35.681       4.645      -7.260
  C      -35.641       5.662      -6.311
  O      -36.135       6.774      -6.494
  N      -34.977       5.371      -5.151
  C      -34.331       4.203      -4.870
  O      -33.691       4.032      -3.840
  C      -34.419       3.158      -5.905
  C      -35.071       3.426      -7.039
  O      -33.861       1.139     -12.574
  O      -32.968       0.254     -10.335
  H      -33.015       0.749     -12.862
  H      -37.224       6.605      -9.993
  H      -34.928       6.099      -4.456
  H      -33.922       2.216      -5.711
  H      -35.132       2.679      -7.824
  H      -37.311       5.455      -8.264
  H      -34.686       6.386      -8.875
  H      -34.128       4.398     -10.068
  H      -36.979       4.494     -11.206
  H      -36.771       2.097     -11.398
  H      -35.391       2.823     -12.258
  P      -33.146       5.533     -12.204
  C      -32.433       7.944     -11.440
  O      -32.304       6.543     -11.284
  O      -33.267       6.291     -13.606
  O      -32.597       4.149     -12.279
  H      -33.908       7.022     -13.590
  H      -31.795       8.441     -10.740
  H      -33.449       8.231     -11.263
  H      -32.153       8.219     -12.435

 6  7  8  9  10  11  12  13  14  15  16  27  31  32  33  34  35 0
 6-311+G(2d,p)
 ****
 36  37 0
 6-311+G(2d,p)
 ****
 1  2  3  4  5  17  18  19  20  21  22  23  24  25 0
 3-21G
 ****
 26  28  29  30  38  39  40  41  42  43  44  45 0
 3-21G
 ****


