%nproc=1
%NoSave
%Mem=1900MB
#P OB98/GEN NMR

erre ene a

0 1
  C     -109.691    -688.951      -6.558
  O     -109.275    -688.390      -7.792
  P     -108.249    -689.236      -8.715
  C     -109.806    -689.357     -10.808
  O     -109.181    -690.054      -9.738
  C     -110.506    -690.351     -11.768
  O     -109.497    -691.201     -12.387
  C     -111.552    -691.254     -11.093
  O     -112.631    -691.422     -12.047
  C     -110.788    -692.551     -10.901
  O     -111.685    -693.669     -10.788
  C     -109.937    -692.571     -12.182
  N     -108.786    -693.475     -12.085
  C     -109.051    -694.823     -12.278
  O     -110.184    -695.287     -12.449
  N     -107.959    -695.665     -12.224
  C     -106.672    -695.294     -11.917
  O     -105.726    -696.060     -11.875
  C     -106.483    -693.853     -11.596
  C     -107.549    -693.046     -11.691
  O     -107.777    -690.345      -7.662
  O     -107.178    -688.400      -9.320
  H     -108.471    -690.642      -7.040
  H     -112.220    -693.736     -11.610
  H     -108.116    -696.632     -12.407
  H     -105.508    -693.537     -11.279
  H     -107.439    -691.983     -11.434
  H     -110.537    -692.865     -13.049
  H     -110.162    -692.508      -9.998
  H     -111.931    -690.840     -10.158
  H     -110.991    -689.754     -12.562
  H     -109.067    -688.781     -11.385
  H     -110.529    -688.633     -10.378
  P     -113.990    -690.635     -11.781
  C     -114.007    -689.228     -13.993
  O     -113.925    -689.234     -12.588
  O     -113.786    -690.177     -10.259
  O     -115.237    -691.453     -11.972
  H     -112.913    -689.789     -10.093
  H     -114.187    -688.185     -14.316
  H     -114.848    -689.830     -14.338
  H     -113.092    -689.588     -14.435
  H     -110.362    -688.277      -6.068
  H     -108.837    -689.118      -5.936
  H     -110.188    -689.881      -6.739

 3  4  5  6  7  8  9  10  11  12  13  24  28  29  30  31  32 0
 6-311+G(2d,p)
 ****
 33  34 0
 6-311+G(2d,p)
 ****
 1  2  14  15  16  17  18  19  20  21  22  23  25  26  27 0
 3-21G
 ****
 35  36  37  38  39  40  41  42  43  44  45 0
 3-21G
 ****


