%nproc=1
%NoSave
%Mem=1900MB
#P OB98/GEN NMR

erre ene a

0 1
  C     -328.573    -332.505     126.641
  O     -328.758    -332.324     125.250
  P     -330.071    -331.552     124.749
  C     -329.145    -330.750     122.421
  O     -330.036    -331.582     123.140
  C     -329.484    -330.769     120.933
  O     -329.280    -332.121     120.418
  C     -330.928    -330.374     120.599
  O     -330.898    -329.663     119.352
  C     -331.622    -331.712     120.444
  O     -332.806    -331.628     119.669
  C     -330.505    -332.536     119.781
  N     -330.690    -333.981     119.919
  C     -331.623    -334.596     119.092
  O     -332.314    -333.997     118.273
  N     -331.761    -335.951     119.260
  C     -331.127    -336.719     120.191
  O     -331.302    -337.925     120.312
  C     -330.184    -336.004     121.070
  C     -330.006    -334.694     120.886
  O     -329.708    -330.041     125.116
  O     -331.338    -332.061     125.352
  H     -328.765    -329.840     125.002
  H     -333.262    -332.491     119.713
  H     -332.406    -336.429     118.645
  H     -329.668    -336.572     121.835
  H     -329.318    -334.144     121.522
  H     -330.422    -332.276     118.720
  H     -331.883    -332.113     121.427
  H     -331.376    -329.742     121.376
  H     -328.774    -330.118     120.408
  H     -328.118    -331.111     122.564
  H     -329.199    -329.733     122.820
  P     -331.767    -328.314     119.226
  C     -330.148    -326.601     118.091
  O     -331.210    -327.510     117.957
  O     -331.175    -327.481     120.465
  O     -333.244    -328.504     119.309
  H     -330.204    -327.473     120.487
  H     -329.705    -326.422     117.105
  H     -329.364    -326.989     118.754
  H     -330.513    -325.652     118.484
  H     -327.658    -333.033     126.813
  H     -329.391    -333.069     127.039
  H     -328.530    -331.550     127.122

 3  4  5  6  7  8  9  10  11  12  13  24  28  29  30  31  32 0
 6-311+G(2d,p)
 ****
 33  34 0
 6-311+G(2d,p)
 ****
 1  2  14  15  16  17  18  19  20  21  22  23  25  26  27 0
 3-21G
 ****
 35  36  37  38  39  40  41  42  43  44  45 0
 3-21G
 ****


