%nproc=1
%NoSave
%Mem=1900MB
#P OB98/GEN NMR

erre ene a

0 1
  C     -160.305     266.090     362.012
  O     -159.318     266.827     361.319
  H     -161.161     266.741     362.204
  H     -159.911     265.732     362.969
  H     -160.635     265.242     361.404
  P     -157.947     266.062     360.988
  C     -155.469     266.643     361.408
  O     -156.820     266.904     361.768
  C     -154.535     266.976     362.575
  O     -154.818     268.325     363.022
  C     -154.703     266.042     363.780
  O     -153.425     265.833     364.384
  C     -155.581     266.852     364.721
  O     -155.445     266.436     366.077
  C     -155.087     268.271     364.438
  N     -157.395     270.470     368.414
  C     -156.330     269.640     368.325
  N     -155.761     269.125     367.216
  C     -156.380     269.583     366.109
  C     -157.476     270.423     366.038
  C     -157.999     270.869     367.263
  N     -159.105     271.678     367.365
  N     -157.843     270.625     364.718
  C     -156.980     269.923     364.010
  N     -156.086     269.259     364.808
  O     -157.671     265.823     359.544
  O     -158.077     264.745     361.888
  H     -156.069     266.958     366.627
  H     -158.376     264.957     362.793
  H     -155.873     269.358     369.272
  H     -156.966     269.846     362.924
  H     -154.165     268.516     364.973
  H     -156.630     266.740     364.440
  H     -155.155     265.085     363.521
  H     -153.501     266.972     362.206
  H     -155.190     267.245     360.532
  H     -159.413     271.953     368.285
  H     -159.568     271.994     366.522
  H     -155.385     265.582     361.140
  P     -152.868     264.336     364.525
  C     -152.748     262.493     366.329
  O     -153.045     263.855     366.051
  O     -151.515     264.091     363.940
  O     -153.986     263.471     363.762
  H     -153.546     262.785     363.222
  H     -152.903     262.299     367.370
  H     -151.728     262.292     366.077
  H     -153.389     261.863     365.749

 6  7  8  9  10  11  12  13  14  15  25  28  32  33  34  35 0
 6-311+G(2d,p)
 ****
 36  39  40 0
 6-311+G(2d,p)
 ****
 1  2  3  4  5  16  17  18  19  20  21  22  23  24 0
 3-21G
 ****
 26  27  29  30  31  37  38  41  42  43  44  45  46  47 0
 3-21G
 ****
 48 0
 3-21G
 ****


