%nproc=1
%NoSave
%Mem=1900MB
#P OB98/GEN NMR

erre ene a

0 1
  C       -2.668      57.464      18.798
  O       -1.834      58.607      18.720
  H       -2.626      57.067      19.817
  H       -2.311      56.697      18.105
  H       -3.703      57.728      18.562
  P       -1.937      59.472      17.376
  C        0.053      58.348      16.087
  O       -1.348      58.568      16.181
  C        0.389      57.660      14.766
  O       -0.565      56.618      14.475
  C        0.309      58.570      13.551
  O        1.379      59.487      13.486
  C        0.322      57.541      12.427
  O        1.657      57.143      12.089
  C       -0.460      56.361      13.054
  N       -1.756      56.180      12.426
  C       -1.763      55.358      11.290
  O       -0.718      54.832      10.901
  N       -2.940      55.190      10.608
  C       -4.010      55.806      11.006
  N       -5.138      55.621      10.266
  C       -4.046      56.681      12.196
  C       -2.893      56.823      12.853
  O       -0.801      60.578      17.590
  O       -3.291      60.032      17.093
  H        2.178      57.969      12.011
  H        0.055      60.212      17.869
  H       -4.967      57.161      12.494
  H       -2.830      57.447      13.738
  H        0.107      55.425      12.947
  H       -0.133      57.936      11.514
  H       -0.660      59.088      13.528
  H        1.385      57.206      14.860
  H       -5.054      55.059       9.427
  H        0.405      57.743      16.930
  H       -6.005      56.110      10.433
  H        0.549      59.322      16.147
  P        1.168      60.977      12.939
  C        2.094      60.282      10.636
  O        1.003      60.865      11.342
  O        2.188      61.972      13.381
  O       -0.327      61.326      13.401
  H       -1.013      60.730      13.052
  H        1.871      60.261       9.590
  H        2.253      59.284      10.987
  H        2.977      60.863      10.801

 6  7  8  9  10  11  12  13  14  15  16  26  30  31  32  33  35 0
 6-311+G(2d,p)
 ****
 37  38 0
 6-311+G(2d,p)
 ****
 1  2  3  4  5  17  18  19  20  21  22  23  24  25 0
 3-21G
 ****
 27  28  29  34  36  39  40  41  42  43  44  45  46 0
 3-21G
 ****


