%nproc=1
%NoSave
%Mem=1900MB
#P OB98/GEN NMR

erre ene a

0 1
  C     -357.624    -319.491    -114.698
  O     -358.856    -319.085    -114.068
  P     -359.178    -317.574    -113.645
  C     -358.018    -317.895    -111.351
  O     -358.098    -317.122    -112.542
  C     -356.839    -317.446    -110.476
  O     -356.941    -316.022    -110.200
  C     -356.772    -318.085    -109.097
  O     -356.338    -319.436    -109.146
  C     -355.802    -317.148    -108.389
  O     -354.430    -317.495    -108.665
  C     -356.128    -315.783    -109.033
  N     -356.811    -314.882    -108.117
  C     -356.041    -314.397    -107.032
  O     -354.893    -314.816    -106.855
  N     -356.618    -313.481    -106.180
  C     -357.868    -313.153    -106.332
  N     -358.374    -312.232    -105.471
  C     -358.738    -313.736    -107.378
  C     -358.145    -314.581    -108.216
  O     -360.598    -317.340    -113.228
  O     -358.817    -316.687    -114.938
  H     -359.334    -315.864    -114.926
  H     -354.325    -318.439    -108.455
  H     -359.788    -313.469    -107.426
  H     -358.710    -315.055    -109.015
  H     -355.215    -315.311    -109.397
  H     -355.924    -317.175    -107.298
  H     -357.753    -318.027    -108.619
  H     -355.909    -317.630    -111.044
  H     -357.751    -311.837    -104.779
  H     -357.873    -318.943    -111.633
  H     -359.326    -311.882    -105.524
  H     -358.970    -317.810    -110.801
  P     -357.467    -320.564    -108.968
  C     -356.325    -321.627    -106.866
  O     -357.470    -320.976    -107.402
  O     -356.826    -321.850    -109.686
  O     -358.799    -320.221    -109.532
  H     -357.530    -322.343    -110.166
  H     -356.283    -321.401    -105.798
  H     -355.408    -321.288    -107.352
  H     -356.436    -322.713    -106.995
  H     -357.648    -320.545    -114.881
  H     -356.801    -319.259    -114.055
  H     -357.509    -318.970    -115.626

 3  4  5  6  7  8  9  10  11  12  13  24  27  28  29  30  32 0
 6-311+G(2d,p)
 ****
 34  35 0
 6-311+G(2d,p)
 ****
 1  2  14  15  16  17  18  19  20  21  22  23  25  26 0
 3-21G
 ****
 31  33  36  37  38  39  40  41  42  43  44  45  46 0
 3-21G
 ****


