%nproc=1
%NoSave
%Mem=1900MB
#P OB98/GEN NMR

erre ene a

0 1
  C     -154.142     733.431     560.471
  O     -155.463     733.269     559.942
  P     -155.741     733.158     558.366
  C     -158.074     732.382     559.158
  O     -157.331     733.029     558.131
  C     -159.573     732.659     559.036
  O     -159.884     733.997     559.479
  C     -160.124     732.554     557.619
  O     -160.313     731.202     557.257
  C     -161.405     733.371     557.721
  O     -162.457     732.595     558.307
  C     -160.983     734.497     558.681
  N     -162.657     738.502     555.974
  C     -163.305     737.467     556.552
  N     -162.781     736.439     557.259
  C     -161.445     736.552     557.356
  C     -160.649     737.553     556.810
  C     -161.311     738.566     556.082
  N     -160.648     739.604     555.481
  N     -159.323     737.323     557.094
  C     -159.319     736.218     557.818
  N     -160.580     735.720     558.002
  O     -154.936     732.105     557.672
  O     -155.400     734.607     557.783
  H     -162.147     732.280     559.179
  H     -155.110     734.529     556.857
  H     -164.385     737.464     556.436
  H     -158.433     735.745     558.228
  H     -161.776     734.756     559.381
  H     -161.762     733.734     556.755
  H     -159.435     733.040     556.910
  H     -160.102     731.964     559.703
  H     -157.712     732.748     560.130
  H     -161.182     740.274     554.952
  H     -159.635     739.632     555.523
  H     -157.887     731.304     559.107
  P     -159.337     730.498     556.198
  C     -160.133     728.256     557.152
  O     -159.853     728.994     555.987
  O     -157.874     730.619     556.487
  O     -159.704     731.198     554.810
  H     -158.917     731.216     554.234
  H     -159.196     727.867     557.565
  H     -160.786     727.410     556.887
  H     -160.638     728.871     557.902
  H     -154.189     733.482     561.539
  H     -153.713     734.334     560.089
  H     -153.537     732.598     560.180

 3  4  5  6  7  8  9  10  11  12  22  25  29  30  31  32 0
 6-311+G(2d,p)
 ****
 33  36  37 0
 6-311+G(2d,p)
 ****
 1  2  13  14  15  16  17  18  19  20  21  23  24  26 0
 3-21G
 ****
 27  28  34  35  38  39  40  41  42  43  44  45  46  47  48 0
 3-21G
 ****


