%nproc=1
%NoSave
%Mem=1900MB
#P OB98/GEN NMR

erre ene a

0 1
  C      260.168    -213.828     -44.075
  O      259.115    -212.889     -43.963
  H      260.014    -214.616     -43.330
  H      261.130    -213.346     -43.874
  H      260.182    -214.283     -45.064
  P      259.018    -211.709     -45.043
  C      260.261    -209.494     -45.499
  O      260.079    -210.589     -44.614
  C      260.627    -208.238     -44.705
  O      261.820    -208.465     -43.928
  C      260.905    -207.021     -45.574
  O      259.711    -206.451     -46.069
  C      261.674    -206.145     -44.597
  O      260.774    -205.448     -43.717
  C      262.507    -207.192     -43.815
  N      263.885    -207.290     -44.296
  C      264.876    -206.891     -43.407
  O      264.639    -206.439     -42.284
  N      266.168    -207.001     -43.863
  C      266.541    -207.351     -45.124
  O      267.705    -207.348     -45.512
  C      265.452    -207.740     -46.030
  C      264.193    -207.690     -45.584
  O      257.643    -211.201     -45.323
  O      259.683    -212.348     -46.355
  H      261.326    -204.835     -43.194
  H      258.983    -212.573     -46.994
  H      266.893    -206.703     -43.239
  H      265.704    -208.034     -47.037
  H      263.370    -207.974     -46.239
  H      262.532    -206.942     -42.748
  H      262.277    -205.389     -45.099
  H      261.579    -207.293     -46.396
  H      259.800    -208.031     -44.004
  H      259.324    -209.322     -46.041
  H      261.055    -209.740     -46.219
  P      259.749    -205.537     -47.379
  C      260.801    -203.299     -48.087
  O      260.485    -204.162     -47.001
  O      258.442    -205.378     -48.096
  O      260.822    -206.270     -48.321
  H      260.390    -206.539     -49.164
  H      261.286    -202.421     -47.715
  H      259.901    -203.022     -48.596
  H      261.454    -203.806     -48.767

 6  7  8  9  10  11  12  13  14  15  16  26  31  32  33  34  35 0
 6-311+G(2d,p)
 ****
 36  37 0
 6-311+G(2d,p)
 ****
 1  2  3  4  5  17  18  19  20  21  22  23  24  25 0
 3-21G
 ****
 27  28  29  30  38  39  40  41  42  43  44  45 0
 3-21G
 ****


