%nproc=1
%NoSave
%Mem=1900MB
#P OB98/GEN NMR

erre ene a

0 1
  C      238.061    -122.868     -87.747
  O      237.782    -124.245     -87.643
  P      236.353    -124.884     -87.942
  C      235.949    -125.814     -85.532
  O      236.111    -126.093     -86.917
  C      236.559    -126.932     -84.672
  O      235.700    -128.099     -84.752
  C      237.941    -127.358     -85.198
  O      238.903    -127.587     -84.177
  C      237.609    -128.524     -86.118
  O      238.716    -129.374     -86.379
  C      236.429    -129.164     -85.393
  N      235.648    -133.424     -88.052
  C      236.626    -133.150     -87.115
  N      237.621    -134.059     -87.014
  N      236.639    -132.068     -86.382
  C      235.645    -131.201     -86.675
  C      234.620    -131.363     -87.581
  C      234.599    -132.576     -88.363
  O      233.816    -132.809     -89.285
  N      233.829    -130.246     -87.664
  C      234.395    -129.391     -86.835
  N      235.520    -129.916     -86.237
  O      236.001    -125.098     -89.377
  O      235.361    -123.750     -87.360
  H      239.458    -128.808     -86.664
  H      234.564    -123.745     -87.929
  H      235.736    -134.240     -88.647
  H      234.057    -128.379     -86.652
  H      236.761    -129.857     -84.620
  H      237.297    -128.103     -87.080
  H      237.715    -134.825     -87.665
  H      238.390    -126.553     -85.790
  H      238.463    -133.766     -86.525
  H      236.588    -126.609     -83.627
  H      234.871    -125.750     -85.354
  H      236.391    -124.848     -85.279
  P      240.467    -127.262     -84.184
  C      241.116    -129.721     -84.515
  O      241.264    -128.567     -83.710
  O      240.682    -126.252     -82.960
  O      240.973    -126.654     -85.449
  H      241.329    -125.568     -83.213
  H      241.467    -130.590     -83.951
  H      241.721    -129.617     -85.417
  H      240.067    -129.874     -84.787
  H      239.086    -122.692     -87.496
  H      237.431    -122.325     -87.075
  H      237.878    -122.542     -88.750

 3  4  5  6  7  8  9  10  11  12  23  26  30  31 0
 6-311+G(2d,p)
 ****
 33  35  36  37  38 0
 6-311+G(2d,p)
 ****
 1  2  13  14  15  16  17  18  19  20  21  22  24  25 0
 3-21G
 ****
 27  28  29  32  34  39  40  41  42  43  44  45  46  47  48  49 0
 3-21G
 ****


