%nproc=1
%NoSave
%Mem=1900MB
#P OB98/GEN NMR

erre ene a

0 1
  C     -146.227      58.310      70.136
  O     -144.843      58.462      69.895
  H     -146.616      57.537      69.469
  H     -146.752      59.246      69.933
  H     -146.397      58.003      71.171
  P     -144.082      59.597      70.736
  C     -143.482      58.260      72.880
  O     -144.309      59.251      72.285
  C     -142.863      58.813      74.159
  O     -142.083      59.994      73.858
  C     -143.880      59.254      75.203
  O     -144.423      58.161      75.919
  C     -143.025      60.162      76.071
  O     -142.282      59.411      77.045
  C     -142.081      60.819      75.039
  N     -142.461      62.196      74.746
  C     -142.322      63.097      75.798
  O     -141.909      62.774      76.913
  N     -142.713      64.382      75.540
  C     -143.251      64.835      74.372
  O     -143.649      65.984      74.228
  C     -143.360      63.841      73.290
  C     -142.976      62.584      73.526
  O     -144.990      60.894      70.498
  O     -142.660      59.825      70.347
  H     -144.568      61.480      69.843
  H     -141.667      58.844      76.541
  H     -142.631      65.047      76.293
  H     -143.779      64.169      72.346
  H     -143.066      61.830      72.751
  H     -141.051      60.826      75.418
  H     -143.633      60.878      76.622
  H     -144.667      59.855      74.733
  H     -142.186      58.053      74.576
  H     -142.682      57.986      72.186
  H     -144.086      57.372      73.091
  P     -145.726      58.409      76.821
  C     -147.726      57.317      75.513
  O     -146.972      58.478      75.813
  O     -145.505      59.926      77.273
  O     -145.876      57.433      77.938
  H     -145.089      60.472      76.583
  H     -148.508      57.567      74.827
  H     -148.153      56.926      76.413
  H     -147.087      56.581      75.072

 6  7  8  9  10  11  12  13  14  15  16  27  31  32  33  34  35 0
 6-311+G(2d,p)
 ****
 36  37 0
 6-311+G(2d,p)
 ****
 1  2  3  4  5  17  18  19  20  21  22  23  24  25 0
 3-21G
 ****
 26  28  29  30  38  39  40  41  42  43  44  45 0
 3-21G
 ****


