%nproc=1
%NoSave
%Mem=1900MB
#P OB98/GEN NMR

erre ene a

0 1
  C      -88.292     -18.256      15.608
  O      -88.029     -19.448      14.892
  H      -87.339     -17.800      15.893
  H      -88.853     -18.486      16.517
  H      -88.851     -17.542      14.994
  P      -89.231     -20.171      14.116
  C      -87.853     -20.566      11.965
  O      -88.540     -21.164      13.058
  C      -86.738     -21.495      11.473
  O      -85.570     -21.306      12.331
  C      -87.118     -22.992      11.526
  O      -86.485     -23.665      10.433
  C      -86.480     -23.418      12.836
  O      -86.294     -24.810      12.906
  C      -85.188     -22.605      12.811
  N      -84.565     -22.552      14.131
  C      -83.770     -23.634      14.499
  O      -83.586     -24.617      13.778
  N      -83.245     -23.596      15.760
  C      -83.525     -22.651      16.709
  O      -83.087     -22.711      17.852
  C      -84.415     -21.559      16.285
  C      -84.880     -21.554      15.035
  O      -90.271     -19.268      13.533
  O      -89.838     -21.191      15.186
  H      -87.128     -25.268      12.698
  H      -90.753     -21.438      14.942
  H      -82.658     -24.367      16.035
  H      -84.663     -20.800      17.019
  H      -85.554     -20.772      14.693
  H      -84.475     -23.030      12.094
  H      -87.115     -23.118      13.681
  H      -88.195     -23.163      11.498
  H      -86.445     -21.201      10.460
  H      -87.420     -19.619      12.307
  H      -88.558     -20.363      11.155
  P      -87.326     -24.483       9.338
  C      -86.233     -23.308       7.328
  O      -86.521     -24.562       7.944
  O      -88.749     -24.028       9.192
  O      -87.296     -26.001       9.866
  H      -88.195     -26.378       9.808
  H      -85.700     -23.473       6.415
  H      -85.635     -22.715       7.988
  H      -87.148     -22.795       7.119

 6  7  8  9  10  11  12  13  14  15  16  26  31  32  33  34  35 0
 6-311+G(2d,p)
 ****
 36  37 0
 6-311+G(2d,p)
 ****
 1  2  3  4  5  17  18  19  20  21  22  23  24  25 0
 3-21G
 ****
 27  28  29  30  38  39  40  41  42  43  44  45 0
 3-21G
 ****


