%nproc=1
%NoSave
%Mem=1900MB
#P OB98/GEN NMR

erre ene a

0 1
  C      116.392     -76.305     -13.719
  O      114.980     -76.364     -13.778
  H      116.792     -77.299     -13.937
  H      116.719     -76.003     -12.719
  H      116.767     -75.600     -14.464
  P      114.191     -75.007     -13.449
  C      112.827     -76.182     -11.605
  O      113.767     -75.157     -11.906
  C      112.703     -76.365     -10.092
  O      113.882     -77.059      -9.613
  C      112.596     -75.044      -9.326
  O      111.684     -75.203      -8.241
  C      113.999     -74.833      -8.784
  O      114.013     -74.020      -7.613
  C      114.466     -76.270      -8.562
  N      118.698     -76.049      -5.722
  C      117.389     -76.043      -5.395
  N      116.321     -76.122      -6.217
  C      116.716     -76.264      -7.495
  C      118.011     -76.283      -7.981
  C      119.038     -76.160      -7.029
  N      120.373     -76.139      -7.356
  N      118.009     -76.398      -9.358
  C      116.734     -76.462      -9.694
  N      115.915     -76.367      -8.602
  O      113.083     -74.659     -14.385
  O      115.386     -73.946     -13.376
  H      114.943     -73.800      -7.402
  H      116.146     -74.299     -12.877
  H      117.168     -75.958      -4.334
  H      116.356     -76.561     -10.706
  H      114.139     -76.674      -7.596
  H      114.616     -74.338      -9.545
  H      112.276     -74.218      -9.961
  H      111.846     -77.017      -9.885
  H      113.140     -77.127     -12.063
  H      121.045     -76.063      -6.609
  H      120.647     -76.239      -8.324
  H      111.864     -75.891     -12.032
  P      110.152     -74.786      -8.464
  C      110.347     -72.282      -7.870
  O      110.101     -73.240      -8.894
  O      109.203     -75.185      -7.384
  O      109.790     -75.530      -9.840
  H      108.870     -75.855      -9.790
  H      110.285     -71.296      -8.281
  H      111.324     -72.438      -7.463
  H      109.617     -72.392      -7.096

 6  7  8  9  10  11  12  13  14  15  25  28  32  33  34  35 0
 6-311+G(2d,p)
 ****
 36  39  40 0
 6-311+G(2d,p)
 ****
 1  2  3  4  5  16  17  18  19  20  21  22  23  24 0
 3-21G
 ****
 26  27  29  30  31  37  38  41  42  43  44  45  46  47 0
 3-21G
 ****
 48 0
 3-21G
 ****


