%nproc=1
%NoSave
%Mem=1900MB
#P OB98/GEN NMR

erre ene a

0 1
  C     -337.404       7.075     -49.104
  O     -338.787       7.239     -49.359
  P     -339.473       6.224     -50.399
  C     -339.793       4.303     -48.674
  O     -339.139       4.753     -49.857
  C     -340.548       3.004     -48.948
  O     -341.591       3.237     -49.911
  C     -339.687       1.901     -49.534
  O     -338.902       1.293     -48.529
  C     -340.745       0.979     -50.130
  O     -341.238       0.054     -49.149
  C     -341.853       1.971     -50.561
  N     -341.936       2.122     -52.003
  C     -342.293       0.968     -52.716
  O     -342.493      -0.090     -52.119
  N     -342.373       1.041     -54.087
  C     -342.117       2.159     -54.685
  N     -342.217       2.173     -56.044
  C     -341.718       3.390     -53.976
  C     -341.643       3.300     -52.648
  O     -338.554       6.362     -51.699
  O     -340.912       6.501     -50.684
  H     -340.464      -0.485     -48.883
  H     -339.057       6.143     -52.506
  H     -341.513       4.298     -54.524
  H     -341.357       4.154     -52.046
  H     -342.829       1.630     -50.197
  H     -340.345       0.382     -50.957
  H     -339.048       2.294     -50.335
  H     -341.017       2.674     -48.009
  H     -342.486       1.313     -56.504
  H     -340.506       5.065     -48.344
  H     -342.058       2.998     -56.601
  H     -339.045       4.158     -47.888
  P     -337.531       0.597     -48.973
  C     -336.449       2.849     -49.544
  O     -336.883       1.601     -50.042
  O     -338.046      -0.600     -49.908
  O     -336.628       0.113     -47.889
  H     -337.298      -1.168     -50.164
  H     -335.894       3.366     -50.332
  H     -335.789       2.711     -48.683
  H     -337.310       3.461     -49.261
  H     -337.082       7.812     -48.399
  H     -336.857       7.191     -50.016
  H     -337.228       6.098     -48.705

 3  4  5  6  7  8  9  10  11  12  13  21  23  27  28  29  30  32 0
 6-311+G(2d,p)
 ****
 34  35 0
 6-311+G(2d,p)
 ****
 1  2  14  15  16  17  18  19  20  22  24  25  26 0
 3-21G
 ****
 31  33  36  37  38  39  40  41  42  43  44  45  46 0
 3-21G
 ****


