%nproc=1
%NoSave
%Mem=1900MB
#P OB98/GEN NMR

erre ene a

0 1
  C     -799.884      38.957    -671.899
  O     -798.946      37.949    -671.537
  P     -798.151      37.110    -672.656
  C     -798.675      34.904    -673.895
  O     -799.198      36.011    -673.187
  C     -799.667      33.728    -673.882
  O     -799.797      33.249    -672.522
  C     -801.091      34.108    -674.366
  O     -801.611      32.982    -675.047
  C     -801.838      34.355    -673.074
  O     -803.239      34.237    -673.231
  C     -801.202      33.303    -672.169
  N     -801.368      33.597    -670.756
  C     -802.615      33.318    -670.177
  O     -803.544      32.860    -670.860
  N     -802.803      33.578    -668.848
  C     -801.846      34.132    -668.145
  N     -802.052      34.306    -666.809
  C     -800.557      34.530    -668.736
  C     -800.378      34.230    -670.020
  O     -796.831      36.567    -672.204
  O     -798.047      38.121    -673.906
  H     -803.658      34.202    -672.348
  H     -797.286      38.737    -673.845
  H     -799.809      35.025    -668.130
  H     -799.462      34.469    -670.533
  H     -801.610      32.306    -672.392
  H     -801.630      35.384    -672.712
  H     -801.077      34.971    -675.057
  H     -799.263      32.923    -674.489
  H     -802.870      33.854    -666.425
  H     -797.747      34.575    -673.408
  H     -801.272      34.417    -666.162
  H     -798.418      35.187    -674.922
  P     -802.951      33.161    -675.948
  C     -805.298      32.049    -675.746
  O     -804.185      32.624    -675.081
  O     -802.773      31.992    -677.034
  O     -803.129      34.470    -676.628
  H     -803.268      32.245    -677.835
  H     -806.035      31.735    -675.000
  H     -804.991      31.173    -676.324
  H     -805.755      32.788    -676.421
  H     -800.299      39.392    -671.014
  H     -800.667      38.522    -672.484
  H     -799.390      39.715    -672.471

 3  4  5  6  7  8  9  10  11  12  13  23  27  28  29  30  32 0
 6-311+G(2d,p)
 ****
 34  35 0
 6-311+G(2d,p)
 ****
 1  2  14  15  16  17  18  19  20  21  22  24  25  26 0
 3-21G
 ****
 31  33  36  37  38  39  40  41  42  43  44  45  46 0
 3-21G
 ****


