%nproc=1
%NoSave
%Mem=1900MB
#P OB98/GEN NMR

erre ene a

0 1
  C      609.696     326.068    -374.027
  O      610.309     326.324    -375.277
  H      608.688     326.495    -374.039
  H      610.265     326.528    -373.220
  H      609.618     324.990    -373.861
  P      611.825     325.815    -375.446
  C      613.112     328.020    -375.811
  O      612.498     326.892    -376.429
  C      612.547     329.322    -376.382
  O      612.318     329.144    -377.804
  C      611.206     329.736    -375.746
  O      611.158     331.162    -375.660
  C      610.183     329.258    -376.774
  O      608.953     329.969    -376.675
  C      610.949     329.476    -378.081
  N      607.736     329.437    -382.038
  C      608.195     330.436    -381.255
  N      609.066     330.357    -380.232
  C      609.525     329.101    -380.086
  C      609.148     327.982    -380.806
  C      608.200     328.180    -381.825
  N      607.707     327.169    -382.609
  N      609.804     326.864    -380.329
  C      610.570     327.297    -379.344
  N      610.416     328.649    -379.153
  O      611.986     324.391    -375.859
  O      612.459     326.198    -374.023
  H      609.093     330.887    -376.992
  H      612.220     327.107    -373.758
  H      607.787     331.430    -381.471
  H      611.233     326.690    -378.738
  H      610.906     330.527    -378.432
  H      609.974     328.196    -376.625
  H      611.041     329.291    -374.772
  H      613.299     330.117    -376.272
  H      614.202     327.995    -375.979
  H      607.022     327.391    -383.317
  H      608.039     326.220    -382.470
  H      612.923     327.961    -374.733
  P      611.654     331.873    -374.319
  C      609.698     333.444    -373.747
  O      611.031     333.351    -374.242
  O      613.125     331.805    -374.058
  O      610.842     331.096    -373.173
  H      611.431     330.910    -372.420
  H      609.391     334.469    -373.741
  H      609.659     333.054    -372.751
  H      609.043     332.879    -374.377

 6  7  8  9  10  11  12  13  14  15  25  28  32  33  34  35 0
 6-311+G(2d,p)
 ****
 36  39  40 0
 6-311+G(2d,p)
 ****
 1  2  3  4  5  16  17  18  19  20  21  22  23  24 0
 3-21G
 ****
 26  27  29  30  31  37  38  41  42  43  44  45  46  47 0
 3-21G
 ****
 48 0
 3-21G
 ****


