%nproc=1
%NoSave
%Mem=1900MB
#P OB98/GEN NMR

erre ene a

0 1
  C     -344.451    -273.806     278.789
  O     -343.883    -275.080     278.528
  P     -344.857    -276.358     278.607
  C     -345.043    -276.619     276.024
  O     -345.716    -276.359     277.253
  C     -345.248    -278.073     275.608
  O     -346.650    -278.358     275.410
  C     -344.572    -278.447     274.299
  O     -343.188    -278.726     274.462
  C     -345.325    -279.713     273.930
  O     -344.808    -280.832     274.673
  C     -346.755    -279.381     274.389
  N     -349.934    -280.778     270.712
  C     -349.405    -281.521     271.752
  N     -349.733    -282.832     271.780
  N     -348.639    -281.021     272.682
  C     -348.395    -279.695     272.523
  C     -348.862    -278.856     271.531
  C     -349.699    -279.429     270.501
  O     -350.151    -278.836     269.526
  N     -348.406    -277.578     271.708
  C     -347.672    -277.636     272.795
  N     -347.593    -278.907     273.303
  O     -345.928    -275.940     279.720
  O     -344.175    -277.642     278.942
  H     -343.846    -280.860     274.493
  H     -346.400    -276.730     280.046
  H     -350.520    -281.216     270.014
  H     -347.162    -276.790     273.244
  H     -347.248    -280.245     274.848
  H     -345.240    -279.966     272.870
  H     -350.266    -283.290     271.059
  H     -344.747    -277.680     273.529
  H     -349.307    -283.410     272.499
  H     -344.888    -278.715     276.424
  H     -343.978    -276.420     276.151
  H     -345.433    -275.944     275.253
  P     -342.339    -278.981     273.118
  C     -340.803    -276.906     273.377
  O     -341.836    -277.534     272.649
  O     -343.468    -279.365     272.050
  O     -341.291    -280.039     273.246
  H     -343.087    -279.929     271.346
  H     -340.405    -276.076     272.778
  H     -339.984    -277.602     273.582
  H     -341.194    -276.505     274.316
  H     -343.695    -273.054     278.702
  H     -344.856    -273.792     279.779
  H     -345.230    -273.611     278.082

 3  4  5  6  7  8  9  10  11  12  23  26  30  31 0
 6-311+G(2d,p)
 ****
 33  35  36  37  38 0
 6-311+G(2d,p)
 ****
 1  2  13  14  15  16  17  18  19  20  21  22  24  25 0
 3-21G
 ****
 27  28  29  32  34  39  40  41  42  43  44  45  46  47  48  49 0
 3-21G
 ****


