%nproc=1
%NoSave
%Mem=1900MB
#P OB98/GEN NMR

erre ene a

0 1
  C      481.049    -306.507      -2.968
  O      480.025    -306.645      -3.931
  H      480.631    -306.030      -2.079
  H      481.860    -305.884      -3.353
  H      481.439    -307.490      -2.686
  P      480.407    -307.217      -5.378
  C      480.016    -309.445      -6.629
  O      479.994    -308.765      -5.383
  C      478.610    -309.925      -7.013
  O      478.132    -310.845      -5.992
  C      477.577    -308.792      -7.126
  O      476.608    -309.193      -8.102
  C      476.973    -308.798      -5.737
  O      475.775    -308.065      -5.690
  C      476.894    -310.305      -5.477
  N      476.703    -310.624      -4.071
  C      475.591    -310.049      -3.452
  O      474.838    -309.310      -4.089
  N      475.372    -310.299      -2.122
  C      476.226    -311.006      -1.452
  N      475.958    -311.206      -0.132
  C      477.447    -311.582      -2.053
  C      477.619    -311.359      -3.354
  O      481.801    -306.939      -5.837
  O      479.329    -306.550      -6.355
  H      475.431    -308.013      -4.770
  H      479.747    -305.835      -6.869
  H      478.139    -312.146      -1.445
  H      478.488    -311.738      -3.884
  H      476.075    -310.758      -6.051
  H      477.653    -308.328      -5.019
  H      478.022    -307.835      -7.407
  H      478.677    -310.496      -7.948
  H      475.116    -310.784       0.238
  H      480.687    -310.304      -6.524
  H      476.561    -311.720       0.491
  H      480.407    -308.788      -7.411
  P      476.970    -309.412      -9.649
  C      478.947    -310.893     -10.398
  O      477.637    -310.856      -9.838
  O      477.759    -308.294     -10.254
  O      475.556    -309.556     -10.390
  H      475.634    -309.211     -11.299
  H      479.275    -311.909     -10.470
  H      479.619    -310.345      -9.771
  H      478.931    -310.453     -11.373

 6  7  8  9  10  11  12  13  14  15  16  26  30  31  32  33  35 0
 6-311+G(2d,p)
 ****
 37  38 0
 6-311+G(2d,p)
 ****
 1  2  3  4  5  17  18  19  20  21  22  23  24  25 0
 3-21G
 ****
 27  28  29  34  36  39  40  41  42  43  44  45  46 0
 3-21G
 ****


