%nproc=1
%NoSave
%Mem=1900MB
#P OB98/GEN NMR

erre ene a

0 1
  C       25.300    -335.807     347.532
  O       26.028    -334.920     346.676
  P       25.181    -333.938     345.731
  C       25.631    -335.213     343.510
  O       25.786    -334.005     344.243
  C       26.480    -335.206     342.231
  O       26.003    -334.197     341.301
  C       27.967    -334.905     342.484
  O       28.738    -335.584     341.481
  C       28.049    -333.414     342.235
  O       29.389    -332.994     341.991
  C       27.090    -333.280     341.050
  N       28.420    -328.513     340.072
  C       29.200    -329.647     340.193
  N       30.524    -329.496     339.985
  N       28.720    -330.831     340.485
  C       27.368    -330.837     340.625
  C       26.493    -329.780     340.542
  C       27.042    -328.476     340.238
  O       26.403    -327.430     340.136
  N       25.204    -330.179     340.776
  C       25.301    -331.477     341.010
  N       26.589    -331.927     340.896
  O       25.617    -332.482     346.243
  O       23.701    -334.127     345.833
  H       29.363    -332.028     341.816
  H       24.883    -332.074     346.731
  H       28.847    -327.625     339.852
  H       24.478    -332.128     341.262
  H       27.566    -333.556     340.096
  H       27.672    -332.868     343.107
  H       30.951    -328.629     339.703
  H       28.332    -335.194     343.474
  H       31.112    -330.320     340.025
  H       26.384    -336.181     341.740
  H       24.582    -335.365     343.248
  H       25.901    -336.052     344.158
  P       29.473    -336.938     341.923
  C       31.736    -336.589     340.689
  O       30.506    -337.288     340.746
  O       28.337    -338.054     341.770
  O       30.053    -336.912     343.299
  H       28.521    -338.809     342.357
  H       32.526    -337.243     341.054
  H       31.710    -335.672     341.284
  H       31.942    -336.331     339.645
  H       25.987    -336.398     348.101
  H       24.683    -336.449     346.939
  H       24.685    -335.237     348.197

 3  4  5  6  7  8  9  10  11  12  23  26  30  31 0
 6-311+G(2d,p)
 ****
 33  35  36  37  38 0
 6-311+G(2d,p)
 ****
 1  2  13  14  15  16  17  18  19  20  21  22  24  25 0
 3-21G
 ****
 27  28  29  32  34  39  40  41  42  43  44  45  46  47  48  49 0
 3-21G
 ****


