%nproc=1
%NoSave
%Mem=1900MB
#P OB98/GEN NMR

erre ene a

0 1
  C     -179.519      90.808     444.874
  O     -179.908      91.781     445.827
  H     -180.411      90.263     444.547
  H     -178.821      90.089     445.312
  H     -179.063      91.290     444.007
  P     -178.756      92.606     446.576
  C     -179.048      91.007     448.595
  O     -178.144      91.603     447.666
  C     -178.297      90.067     449.534
  O     -177.842      88.903     448.815
  C     -177.045      90.698     450.136
  O     -177.379      91.606     451.168
  C     -176.282      89.458     450.574
  O     -176.781      88.956     451.817
  C     -176.588      88.485     449.412
  N     -175.524      88.439     448.414
  C     -174.441      87.600     448.707
  O     -174.424      86.944     449.745
  N     -173.399      87.545     447.810
  C     -173.436      88.245     446.723
  N     -172.374      88.143     445.883
  C     -174.564      89.133     446.372
  C     -175.561      89.182     447.255
  O     -179.135      93.950     447.123
  O     -177.591      92.711     445.481
  H     -176.298      88.124     451.981
  H     -177.705      93.511     444.936
  H     -174.554      89.696     445.444
  H     -176.428      89.811     447.074
  H     -176.743      87.470     449.797
  H     -175.220      89.669     450.702
  H     -176.456      91.199     449.351
  H     -178.985      89.735     450.320
  H     -171.615      87.536     446.170
  H     -179.790      90.448     448.015
  H     -172.330      88.574     444.968
  H     -179.572      91.780     449.173
  P     -176.719      93.065     451.220
  C     -175.211      92.260     453.157
  O     -175.260      92.851     451.854
  O     -177.550      94.124     451.865
  O     -176.398      93.372     449.674
  H     -177.215      93.580     449.165
  H     -174.192      92.170     453.470
  H     -175.662      91.290     453.126
  H     -175.743      92.878     453.849

 6  7  8  9  10  11  12  13  14  15  16  26  30  31  32  33  35 0
 6-311+G(2d,p)
 ****
 37  38 0
 6-311+G(2d,p)
 ****
 1  2  3  4  5  17  18  19  20  21  22  23  24  25 0
 3-21G
 ****
 27  28  29  34  36  39  40  41  42  43  44  45  46 0
 3-21G
 ****


