%nproc=1
%NoSave
%Mem=1900MB
#P OB98/GEN NMR

erre ene a

0 1
  C      -27.457      25.682      58.817
  O      -26.212      25.132      58.442
  P      -25.281      24.305      59.442
  C      -24.319      21.897      59.591
  O      -25.039      22.846      58.813
  C      -24.089      20.569      58.854
  O      -25.352      20.054      58.387
  C      -23.228      20.800      57.609
  O      -21.820      20.855      57.716
  C      -23.755      19.813      56.575
  O      -22.963      18.626      56.497
  C      -25.161      19.486      57.081
  N      -27.775      18.673      52.814
  C      -26.961      17.804      53.515
  N      -26.665      16.642      52.894
  N      -26.471      18.066      54.699
  C      -26.778      19.306      55.147
  C      -27.584      20.248      54.550
  C      -28.153      19.929      53.262
  O      -28.809      20.704      52.571
  N      -27.611      21.420      55.260
  C      -26.789      21.206      56.267
  N      -26.228      19.951      56.218
  O      -25.595      24.414      60.899
  O      -23.851      25.017      59.203
  H      -22.156      18.837      55.994
  H      -23.375      25.009      60.056
  H      -28.059      18.447      51.870
  H      -26.539      21.930      57.032
  H      -25.290      18.402      57.191
  H      -23.742      20.258      55.574
  H      -26.904      16.470      51.928
  H      -23.500      21.788      57.217
  H      -25.941      16.059      53.298
  H      -23.690      19.808      59.530
  H      -24.884      21.733      60.514
  H      -23.352      22.319      59.877
  P      -20.768      20.709      56.520
  C      -18.388      21.520      56.054
  O      -19.598      21.777      56.744
  O      -21.541      21.289      55.243
  O      -20.304      19.314      56.257
  H      -21.141      20.933      54.428
  H      -17.588      22.113      56.503
  H      -18.498      21.808      55.004
  H      -18.122      20.460      56.112
  H      -27.890      26.188      57.979
  H      -27.313      26.377      59.618
  H      -28.111      24.898      59.138

 3  4  5  6  7  8  9  10  11  12  23  26  30  31 0
 6-311+G(2d,p)
 ****
 33  35  36  37  38 0
 6-311+G(2d,p)
 ****
 1  2  13  14  15  16  17  18  19  20  21  22  24  25 0
 3-21G
 ****
 27  28  29  32  34  39  40  41  42  43  44  45  46  47  48  49 0
 3-21G
 ****


