%nproc=1
%NoSave
%Mem=1900MB
#P OB98/GEN NMR

erre ene a

0 1
  C      -13.398     -10.803     -46.223
  O      -12.144     -10.913     -46.865
  H      -14.141     -11.355     -46.805
  H      -13.704      -9.755     -46.164
  H      -13.345     -11.231     -45.219
  P      -10.935     -10.078     -46.215
  C      -10.098      -7.670     -46.773
  O      -11.185      -8.582     -46.745
  C      -10.623      -6.247     -46.927
  O      -11.498      -5.907     -45.829
  C       -9.536      -5.178     -46.927
  O       -8.865      -5.073     -48.171
  C      -10.366      -3.945     -46.625
  O      -11.083      -3.544     -47.807
  C      -11.332      -4.490     -45.548
  N      -10.842      -4.292     -44.183
  C      -10.959      -3.000     -43.656
  O      -11.442      -2.090     -44.328
  N      -10.493      -2.759     -42.385
  C       -9.967      -3.723     -41.696
  N       -9.510      -3.426     -40.450
  C       -9.840      -5.101     -42.206
  C      -10.291      -5.311     -43.440
  O       -9.658     -10.538     -47.064
  O      -10.771     -10.205     -44.738
  H      -11.717      -2.856     -47.534
  H       -8.878      -9.984     -46.821
  H       -9.384      -5.869     -41.598
  H      -10.228      -6.300     -43.882
  H      -12.320      -4.023     -45.636
  H       -9.765      -3.091     -46.308
  H       -8.822      -5.329     -46.109
  H      -11.222      -6.205     -47.846
  H       -9.553      -2.460     -40.152
  H       -9.453      -7.929     -47.619
  H       -8.928      -4.060     -39.917
  H       -9.521      -7.746     -45.847
  P       -7.475      -4.268     -48.202
  C       -6.843      -1.771     -48.532
  O       -7.836      -2.706     -48.135
  O       -6.978      -4.466     -49.708
  O       -6.456      -4.732     -47.209
  H       -6.011      -4.592     -49.747
  H       -7.228      -0.778     -48.433
  H       -6.573      -1.949     -49.552
  H       -5.979      -1.882     -47.910

 6  7  8  9  10  11  12  13  14  15  16  26  30  31  32  33  35 0
 6-311+G(2d,p)
 ****
 37  38 0
 6-311+G(2d,p)
 ****
 1  2  3  4  5  17  18  19  20  21  22  23  24  25 0
 3-21G
 ****
 27  28  29  34  36  39  40  41  42  43  44  45  46 0
 3-21G
 ****


