%nproc=1
%NoSave
%Mem=1900MB
#P OB98/GEN NMR

erre ene a

0 1
  C      179.084    -102.721      39.841
  O      178.348    -101.767      39.086
  P      179.116    -100.463      38.557
  C      180.273     -99.726      40.757
  O      179.253     -99.460      39.805
  C      179.827     -99.334      42.166
  O      180.853     -99.734      43.115
  C      179.587     -97.835      42.363
  O      178.526     -97.695      43.317
  C      180.884     -97.359      42.992
  O      180.727     -96.126      43.687
  C      181.215     -98.560      43.873
  N      184.764     -96.899      47.159
  C      183.432     -96.689      47.094
  N      182.553     -97.167      46.188
  C      183.178     -97.934      45.279
  C      184.533     -98.209      45.198
  C      185.348     -97.657      46.200
  N      186.703     -97.879      46.276
  N      184.800     -99.013      44.109
  C      183.629     -99.218      43.542
  N      182.617     -98.607      44.227
  O      178.015     -99.760      37.632
  O      180.373    -100.727      37.802
  H      180.231     -96.299      44.509
  H      178.287     -99.808      36.695
  H      183.016     -96.060      47.875
  H      183.462     -99.795      42.643
  H      180.631     -98.565      44.803
  H      181.641     -97.214      42.213
  H      179.342     -97.295      41.442
  H      178.923     -99.904      42.413
  H      181.158     -99.141      40.495
  H      187.194     -97.562      47.097
  H      187.116     -98.591      45.682
  H      180.536    -100.789      40.724
  P      177.206     -96.927      42.828
  C      178.048     -94.500      43.190
  O      177.172     -95.531      43.608
  O      176.021     -97.769      43.500
  O      177.058     -96.853      41.345
  H      175.211     -97.691      42.962
  H      177.560     -93.536      43.348
  H      178.313     -94.595      42.133
  H      178.961     -94.540      43.793
  H      178.440    -103.528      40.121
  H      179.474    -102.255      40.721
  H      179.892    -103.098      39.249

 3  4  5  6  7  8  9  10  11  12  22  25  29  30  31  32 0
 6-311+G(2d,p)
 ****
 33  36  37 0
 6-311+G(2d,p)
 ****
 1  2  13  14  15  16  17  18  19  20  21  23  24  26 0
 3-21G
 ****
 27  28  34  35  38  39  40  41  42  43  44  45  46  47  48 0
 3-21G
 ****


