%nproc=1
%NoSave
%Mem=1900MB
#P OB98/GEN NMR

erre ene a

0 1
  C      154.004      26.097     -88.348
  O      154.536      25.074     -87.531
  H      152.959      25.861     -88.571
  H      154.557      26.149     -89.289
  H      154.042      27.066     -87.841
  P      155.963      25.301     -86.836
  C      157.343      24.247     -88.744
  O      157.035      25.432     -88.024
  C      158.831      24.206     -89.108
  O      159.130      25.351     -89.965
  C      159.778      24.285     -87.891
  O      160.951      23.528     -88.214
  C      160.079      25.772     -87.853
  O      161.175      26.063     -87.025
  C      160.236      26.046     -89.351
  N      160.227      27.464     -89.689
  C      161.402      28.180     -89.478
  O      162.441      27.682     -89.049
  N      161.344      29.518     -89.771
  C      160.252      30.190     -90.237
  O      160.263      31.387     -90.504
  C      159.032      29.385     -90.412
  C      159.074      28.079     -90.135
  O      156.324      24.329     -85.764
  O      155.873      26.797     -86.270
  H      155.642      26.774     -85.322
  H      162.009      25.752     -87.437
  H      162.187      30.051     -89.624
  H      158.143      29.894     -90.760
  H      158.193      27.455     -90.251
  H      161.155      25.591     -89.734
  H      159.224      26.322     -87.447
  H      159.328      23.893     -86.975
  H      159.026      23.304     -89.703
  H      156.738      24.234     -89.657
  H      157.085      23.375     -88.132
  P      161.278      22.092     -87.573
  C      162.613      23.315     -85.733
  O      161.686      22.279     -86.030
  O      162.276      21.300     -88.356
  O      159.876      21.323     -87.508
  H      160.022      20.373     -87.682
  H      162.800      23.335     -84.680
  H      162.207      24.256     -86.041
  H      163.529      23.134     -86.255

 6  7  8  9  10  11  12  13  14  15  16  27  31  32  33  34  35 0
 6-311+G(2d,p)
 ****
 36  37 0
 6-311+G(2d,p)
 ****
 1  2  3  4  5  17  18  19  20  21  22  23  24  25 0
 3-21G
 ****
 26  28  29  30  38  39  40  41  42  43  44  45 0
 3-21G
 ****


