%nproc=1
%NoSave
%Mem=1900MB
#P OB98/GEN NMR

erre ene a

0 1
  C      298.436      29.210    -115.294
  O      298.321      29.370    -116.694
  H      297.737      28.434    -114.973
  H      298.175      30.144    -114.788
  H      299.448      28.907    -115.018
  P      299.367      30.323    -117.451
  C      297.835      32.361    -117.034
  O      299.135      31.806    -116.889
  C      297.702      33.652    -116.220
  O      297.747      33.310    -114.798
  C      298.827      34.682    -116.469
  O      298.256      35.985    -116.258
  C      299.800      34.316    -115.365
  O      300.808      35.279    -115.192
  C      298.807      34.099    -114.212
  N      299.351      33.439    -113.035
  C      299.894      34.242    -112.035
  O      299.948      35.471    -112.078
  N      300.401      33.578    -110.951
  C      300.405      32.223    -110.764
  O      300.850      31.690    -109.751
  C      299.823      31.429    -111.856
  C      299.329      32.060    -112.920
  O      299.389      30.206    -118.939
  O      300.779      29.920    -116.808
  H      301.262      29.336    -117.422
  H      301.493      35.150    -115.884
  H      300.795      34.144    -110.216
  H      299.821      30.352    -111.745
  H      298.880      31.503    -113.741
  H      298.365      35.056    -113.919
  H      300.316      33.387    -115.617
  H      299.238      34.627    -117.479
  H      296.716      34.091    -116.408
  H      297.105      31.624    -116.686
  H      297.651      32.568    -118.095
  P      297.531      36.832    -117.411
  C      298.695      39.135    -117.650
  O      298.631      37.785    -118.095
  O      296.313      37.561    -116.950
  O      297.176      35.769    -118.557
  H      296.405      36.086    -119.067
  H      299.465      39.651    -118.185
  H      298.914      39.155    -116.603
  H      297.755      39.614    -117.827

 6  7  8  9  10  11  12  13  14  15  16  27  31  32  33  34  35 0
 6-311+G(2d,p)
 ****
 36  37 0
 6-311+G(2d,p)
 ****
 1  2  3  4  5  17  18  19  20  21  22  23  24  25 0
 3-21G
 ****
 26  28  29  30  38  39  40  41  42  43  44  45 0
 3-21G
 ****


