%nproc=1
%NoSave
%Mem=1900MB
#P OB98/GEN NMR

erre ene a

0 1
  C      204.160    -246.616     224.711
  O      203.607    -246.620     223.409
  H      203.805    -245.728     225.239
  H      205.251    -246.579     224.651
  H      203.845    -247.507     225.262
  P      203.860    -247.935     222.521
  C      201.583    -247.449     221.307
  O      202.964    -247.748     221.206
  C      201.284    -246.071     220.713
  O      201.930    -245.063     221.531
  C      201.782    -245.899     219.277
  O      200.852    -245.076     218.571
  C      203.091    -245.145     219.450
  O      203.460    -244.435     218.272
  C      202.773    -244.268     220.670
  N      203.978    -243.817     221.363
  C      204.365    -242.491     221.151
  O      203.709    -241.765     220.402
  N      205.504    -242.027     221.756
  C      206.234    -242.834     222.460
  N      207.365    -242.321     223.012
  C      205.889    -244.255     222.672
  C      204.756    -244.671     222.109
  O      203.077    -249.051     223.360
  O      205.298    -248.245     222.275
  H      202.822    -243.700     218.137
  H      202.202    -248.760     223.667
  H      206.536    -244.892     223.257
  H      204.422    -245.695     222.221
  H      202.198    -243.382     220.367
  H      203.900    -245.846     219.685
  H      201.907    -246.851     218.755
  H      200.205    -245.889     220.780
  H      207.575    -241.350     222.822
  H      201.266    -247.469     222.355
  H      208.035    -242.870     223.531
  H      201.028    -248.224     220.769
  P      199.797    -245.752     217.577
  C      197.923    -244.422     218.764
  O      198.469    -244.856     217.525
  O      199.572    -247.214     217.769
  O      200.449    -245.477     216.133
  H      200.329    -246.282     215.594
  H      197.045    -243.838     218.582
  H      198.646    -243.828     219.284
  H      197.667    -245.274     219.359

 6  7  8  9  10  11  12  13  14  15  16  26  30  31  32  33  35 0
 6-311+G(2d,p)
 ****
 37  38 0
 6-311+G(2d,p)
 ****
 1  2  3  4  5  17  18  19  20  21  22  23  24  25 0
 3-21G
 ****
 27  28  29  34  36  39  40  41  42  43  44  45  46 0
 3-21G
 ****


