%nproc=1
%NoSave
%Mem=1900MB
#P OB98/GEN NMR

erre ene a

0 1
  C      324.311     152.419     105.474
  O      324.878     151.228     105.977
  P      326.095     151.211     107.011
  C      327.382     149.338     105.741
  O      327.402     150.676     106.244
  C      328.104     149.199     104.392
  O      327.440     150.013     103.400
  C      329.538     149.733     104.503
  O      330.564     148.902     105.017
  C      329.830     150.354     103.142
  O      330.577     149.486     102.291
  C      328.439     150.622     102.566
  N      327.801     154.456      99.307
  C      327.828     153.095      99.055
  N      327.886     152.731      97.756
  N      327.827     152.189      99.998
  C      327.866     152.706     101.249
  C      327.825     154.027     101.622
  C      327.786     155.022     100.571
  O      327.845     156.236     100.752
  N      327.959     154.180     102.975
  C      328.122     152.950     103.428
  N      328.111     152.023     102.410
  O      325.804     150.689     108.384
  O      326.415     152.788     107.158
  H      330.495     149.816     101.380
  H      326.702     152.948     108.075
  H      327.881     155.110      98.540
  H      328.282     152.684     104.463
  H      328.340     150.158     101.578
  H      330.434     151.263     103.259
  H      328.036     153.405      97.013
  H      329.505     150.578     105.203
  H      328.081     151.763      97.543
  H      328.043     148.170     104.021
  H      326.327     149.042     105.651
  H      327.845     148.666     106.469
  P      331.358     149.120     106.386
  C      333.526     149.450     105.068
  O      332.684     149.969     106.079
  O      331.942     147.665     106.739
  O      330.533     149.631     107.522
  H      332.132     147.614     107.697
  H      334.509     149.920     105.155
  H      333.107     149.681     104.086
  H      333.642     148.359     105.170
  H      323.514     152.178     104.802
  H      325.060     152.979     104.954
  H      323.929     153.003     106.285

 3  4  5  6  7  8  9  10  11  12  23  26  30  31 0
 6-311+G(2d,p)
 ****
 33  35  36  37  38 0
 6-311+G(2d,p)
 ****
 1  2  13  14  15  16  17  18  19  20  21  22  24  25 0
 3-21G
 ****
 27  28  29  32  34  39  40  41  42  43  44  45  46  47  48  49 0
 3-21G
 ****


