%nproc=1
%NoSave
%Mem=1900MB
#P OB98/GEN NMR

erre ene a

0 1
  C     1040.917     -42.582     -40.507
  O     1041.032     -41.708     -39.386
  P     1040.887     -42.169     -37.864
  C     1038.270     -41.896     -37.794
  O     1039.421     -42.740     -37.658
  C     1037.229     -42.149     -36.711
  O     1037.871     -42.534     -35.479
  C     1036.476     -40.828     -36.380
  O     1035.384     -40.436     -37.211
  C     1036.152     -40.904     -34.900
  O     1034.850     -41.431     -34.651
  C     1037.228     -41.846     -34.352
  N     1038.645     -40.433     -29.663
  C     1037.475     -41.052     -30.064
  N     1036.539     -41.284     -29.110
  N     1037.239     -41.412     -31.307
  C     1038.217     -41.031     -32.179
  C     1039.403     -40.392     -31.893
  C     1039.685     -40.045     -30.493
  O     1040.706     -39.525     -30.085
  N     1040.140     -40.156     -33.051
  C     1039.377     -40.643     -33.999
  N     1038.199     -41.173     -33.532
  O     1041.383     -41.178     -36.846
  O     1041.838     -43.477     -37.773
  H     1034.729     -41.466     -33.660
  H     1042.205     -43.479     -36.854
  H     1038.780     -40.202     -28.690
  H     1039.627     -40.619     -35.061
  H     1036.782     -42.640     -33.745
  H     1036.196     -39.901     -34.436
  H     1036.631     -40.951     -28.164
  H     1037.193     -40.007     -36.494
  H     1035.626     -41.540     -29.430
  H     1036.544     -42.951     -36.973
  H     1037.858     -42.113     -38.792
  H     1038.583     -40.844     -37.794
  P     1035.458     -39.475     -38.500
  C     1035.042     -37.572     -36.813
  O     1035.732     -37.983     -38.008
  O     1033.950     -39.424     -39.038
  O     1036.402     -39.953     -39.581
  H     1033.941     -39.100     -39.967
  H     1035.040     -36.473     -36.745
  H     1035.551     -37.978     -35.952
  H     1033.998     -37.946     -36.858
  H     1041.055     -42.024     -41.410
  H     1039.946     -43.032     -40.510
  H     1041.664     -43.346     -40.442

 3  4  5  6  7  8  9  10  11  12  23  26  30  31 0
 6-311+G(2d,p)
 ****
 33  35  36  37  38 0
 6-311+G(2d,p)
 ****
 1  2  13  14  15  16  17  18  19  20  21  22  24  25 0
 3-21G
 ****
 27  28  29  32  34  39  40  41  42  43  44  45  46  47  48  49 0
 3-21G
 ****


