%nproc=1
%NoSave
%Mem=1900MB
#P OB98/GEN NMR

erre ene a

0 1
  C      -32.988    -159.863     -93.567
  O      -32.938    -159.862     -92.155
  H      -33.995    -159.576     -93.884
  H      -32.770    -160.863     -93.950
  H      -32.271    -159.144     -93.972
  P      -31.538    -160.263     -91.479
  C      -32.176    -162.753     -91.836
  O      -31.192    -161.742     -92.010
  C      -31.532    -164.041     -91.322
  O      -30.532    -164.484     -92.283
  C      -30.831    -163.885     -89.963
  O      -31.038    -165.079     -89.199
  C      -29.363    -163.792     -90.344
  O      -28.504    -164.164     -89.271
  C      -29.321    -164.734     -91.543
  N      -24.304    -165.145     -91.621
  C      -25.219    -165.500     -90.647
  N      -24.723    -166.045     -89.515
  N      -26.508    -165.331     -90.771
  C      -26.868    -164.799     -91.965
  C      -26.062    -164.396     -93.004
  C      -24.633    -164.568     -92.845
  O      -23.772    -164.252     -93.662
  N      -26.807    -163.871     -94.031
  C      -28.059    -163.957     -93.614
  N      -28.145    -164.517     -92.368
  O      -31.921    -160.505     -89.943
  O      -30.439    -159.267     -91.636
  H      -28.785    -165.050     -88.955
  H      -31.167    -160.292     -89.360
  H      -23.320    -165.287     -91.470
  H      -28.929    -163.631     -94.168
  H      -29.311    -165.791     -91.244
  H      -29.115    -162.767     -90.643
  H      -23.745    -166.236     -89.360
  H      -31.171    -163.018     -89.392
  H      -25.378    -166.325     -88.792
  H      -32.299    -164.825     -91.282
  H      -32.662    -162.947     -92.799
  H      -32.927    -162.404     -91.120
  P      -32.110    -165.021     -88.007
  C      -30.501    -164.494     -86.039
  O      -31.559    -164.033     -86.866
  O      -31.981    -166.470     -87.338
  O      -33.507    -164.758     -88.462
  H      -32.771    -167.001     -87.549
  H      -30.243    -163.733     -85.332
  H      -29.649    -164.722     -86.644
  H      -30.814    -165.374     -85.517

 6  7  8  9  10  11  12  13  14  15  26  29  33  34 0
 6-311+G(2d,p)
 ****
 36  38  39  40  41 0
 6-311+G(2d,p)
 ****
 1  2  3  4  5  16  17  18  19  20  21  22  23  24  25 0
 3-21G
 ****
 27  28  30  31  32  35  37  42  43  44  45  46  47 0
 3-21G
 ****
 48  49 0
 3-21G
 ****


