%nproc=1
%NoSave
%Mem=1900MB
#P OB98/GEN NMR

erre ene a

0 1
  C     -978.277    -866.390     289.963
  O     -977.754    -867.263     288.966
  P     -978.705    -867.959     287.870
  C     -977.137    -869.932     288.353
  O     -977.915    -869.236     287.387
  C     -976.164    -870.889     287.660
  O     -976.921    -871.880     286.925
  C     -975.213    -870.241     286.677
  O     -974.169    -869.553     287.346
  C     -974.795    -871.443     285.842
  O     -973.787    -872.199     286.506
  C     -976.094    -872.278     285.772
  N     -976.835    -872.088     284.542
  C     -976.374    -872.776     283.431
  O     -975.381    -873.543     283.501
  N     -977.044    -872.671     282.229
  C     -978.061    -871.897     282.125
  N     -978.732    -871.844     280.938
  C     -978.562    -871.077     283.277
  C     -977.915    -871.222     284.420
  O     -979.163    -867.042     286.782
  O     -979.884    -868.578     288.732
  H     -973.677    -873.032     286.025
  H     -980.639    -867.946     288.885
  H     -979.437    -870.431     283.125
  H     -978.239    -870.703     285.313
  H     -975.878    -873.342     285.901
  H     -974.408    -871.162     284.849
  H     -975.776    -869.527     286.039
  H     -975.599    -871.447     288.450
  H     -978.462    -872.552     280.268
  H     -977.833    -870.516     288.996
  H     -979.691    -871.527     280.898
  H     -976.603    -869.226     288.982
  P     -973.955    -868.013     286.975
  C     -971.496    -868.239     286.160
  O     -972.370    -867.738     287.159
  O     -974.621    -867.233     288.227
  O     -974.541    -867.586     285.665
  H     -975.513    -866.913     287.976
  H     -970.514    -867.773     286.285
  H     -971.876    -868.000     285.156
  H     -971.401    -869.339     286.277
  H     -977.479    -866.040     290.585
  H     -978.990    -866.918     290.561
  H     -978.755    -865.556     289.492

 3  4  5  6  7  8  9  10  11  12  13  23  27  28  29  30  32 0
 6-311+G(2d,p)
 ****
 34  35 0
 6-311+G(2d,p)
 ****
 1  2  14  15  16  17  18  19  20  21  22  24  25  26 0
 3-21G
 ****
 31  33  36  37  38  39  40  41  42  43  44  45  46 0
 3-21G
 ****


