%nproc=1
%NoSave
%Mem=1900MB
#P OB98/GEN NMR

erre ene a

0 1
  C      -62.589      -0.868     -46.318
  O      -61.712       0.094     -46.868
  H      -63.378      -0.350     -45.765
  H      -62.050      -1.525     -45.629
  H      -63.045      -1.462     -47.115
  P      -60.420      -0.477     -47.634
  C      -58.375      -1.867     -46.798
  O      -59.627      -1.276     -46.487
  C      -57.611      -2.163     -45.513
  O      -58.352      -3.082     -44.680
  C      -56.252      -2.819     -45.733
  O      -55.250      -1.897     -46.125
  C      -55.993      -3.381     -44.347
  O      -55.595      -2.319     -43.462
  C      -57.394      -3.918     -43.976
  N      -57.583      -5.326     -44.330
  C      -57.443      -6.258     -43.296
  O      -57.163      -5.891     -42.156
  N      -57.589      -7.594     -43.585
  C      -57.863      -7.968     -44.796
  N      -57.984      -9.303     -45.028
  C      -58.036      -7.018     -45.911
  C      -57.884      -5.731     -45.612
  O      -59.506       0.819     -47.849
  O      -60.686      -1.257     -48.877
  H      -56.287      -1.634     -43.512
  H      -58.624       0.551     -48.205
  H      -58.253      -7.378     -46.906
  H      -57.994      -4.976     -46.382
  H      -57.587      -3.800     -42.903
  H      -55.199      -4.130     -44.330
  H      -56.316      -3.652     -46.442
  H      -57.513      -1.223     -44.954
  H      -57.799      -9.932     -44.258
  H      -57.809      -1.168     -47.423
  H      -58.015      -9.693     -45.961
  H      -58.528      -2.798     -47.353
  P      -54.011      -2.460     -46.977
  C      -51.789      -3.673     -46.394
  O      -53.094      -3.308     -45.968
  O      -53.137      -1.150     -47.253
  O      -54.385      -3.163     -48.245
  H      -52.757      -1.162     -48.152
  H      -51.304      -4.230     -45.620
  H      -51.223      -2.790     -46.606
  H      -51.857      -4.274     -47.277

 6  7  8  9  10  11  12  13  14  15  16  26  30  31  32  33  35 0
 6-311+G(2d,p)
 ****
 37  38 0
 6-311+G(2d,p)
 ****
 1  2  3  4  5  17  18  19  20  21  22  23  24  25 0
 3-21G
 ****
 27  28  29  34  36  39  40  41  42  43  44  45  46 0
 3-21G
 ****


