%nproc=1
%NoSave
%Mem=1900MB
#P OB98/GEN NMR

erre ene a

0 1
  C       68.646     136.697     -28.674
  O       69.301     135.449     -28.781
  P       70.885     135.383     -29.008
  C       71.466     134.189     -26.807
  O       71.599     135.383     -27.573
  C       72.779     133.410     -26.804
  O       73.788     134.105     -26.037
  C       72.681     132.032     -26.167
  O       71.991     131.113     -26.994
  C       74.151     131.712     -25.935
  O       74.767     131.239     -27.140
  C       74.712     133.100     -25.553
  N       74.943     133.233     -24.124
  C       75.879     132.355     -23.567
  O       76.398     131.477     -24.257
  N       76.194     132.491     -22.238
  C       75.544     133.339     -21.506
  N       75.939     133.473     -20.212
  C       74.436     134.169     -22.022
  C       74.206     134.083     -23.331
  O       71.431     136.378     -29.978
  O       71.141     133.889     -29.527
  H       71.687     133.927     -30.337
  H       75.697     131.037     -26.918
  H       73.879     134.811     -21.354
  H       73.426     134.671     -23.803
  H       75.656     133.284     -26.081
  H       74.295     130.942     -25.172
  H       72.167     132.109     -25.202
  H       73.130     133.328     -27.842
  H       76.714     132.900     -19.899
  H       70.675     133.577     -27.252
  H       75.736     134.305     -19.661
  H       71.168     134.447     -25.786
  P       71.338     129.838     -26.273
  C       68.877     130.640     -26.297
  O       70.016     130.336     -25.521
  O       72.359     129.524     -25.081
  O       71.155     128.648     -27.159
  H       72.427     128.560     -24.950
  H       67.995     130.619     -25.652
  H       68.738     129.916     -27.107
  H       68.979     131.643     -26.720
  H       67.598     136.538     -28.526
  H       68.798     137.258     -29.572
  H       69.046     137.239     -27.843

 3  4  5  6  7  8  9  10  11  12  13  24  27  28  29  30  32 0
 6-311+G(2d,p)
 ****
 34  35 0
 6-311+G(2d,p)
 ****
 1  2  14  15  16  17  18  19  20  21  22  23  25  26 0
 3-21G
 ****
 31  33  36  37  38  39  40  41  42  43  44  45  46 0
 3-21G
 ****


