%nproc=1
%NoSave
%Mem=1900MB
#P OB98/GEN NMR

erre ene a

0 1
  C     -328.162    -428.492     179.698
  O     -328.182    -427.710     178.526
  H     -327.182    -428.383     180.169
  H     -328.310    -429.547     179.456
  H     -328.929    -428.153     180.400
  P     -329.493    -427.712     177.597
  C     -328.695    -427.262     175.194
  O     -329.172    -426.680     176.404
  C     -327.864    -426.258     174.388
  O     -328.678    -425.094     174.088
  C     -326.609    -425.766     175.127
  O     -325.480    -425.817     174.249
  C     -326.931    -424.312     175.454
  O     -325.769    -423.510     175.621
  C     -327.829    -423.943     174.269
  N     -328.591    -422.727     174.514
  C     -327.858    -421.527     174.511
  O     -326.647    -421.548     174.302
  N     -328.503    -420.357     174.806
  C     -329.767    -420.378     175.117
  N     -330.341    -419.187     175.416
  C     -330.560    -421.620     175.162
  C     -329.924    -422.744     174.849
  O     -330.770    -427.464     178.328
  O     -329.464    -429.132     176.850
  H     -326.038    -422.644     175.997
  H     -330.378    -429.353     176.554
  H     -331.613    -421.589     175.433
  H     -330.431    -423.710     174.849
  H     -327.239    -423.811     173.355
  H     -327.510    -424.276     176.383
  H     -326.384    -426.345     176.024
  H     -327.604    -426.718     173.425
  H     -329.751    -418.368     175.383
  H     -329.558    -427.606     174.614
  H     -331.307    -419.080     175.702
  H     -328.064    -428.120     175.460
  P     -324.274    -426.782     174.697
  C     -322.237    -425.412     173.851
  O     -323.054    -426.558     173.677
  O     -324.818    -428.240     174.339
  O     -323.935    -426.664     176.142
  H     -325.014    -428.739     175.157
  H     -321.474    -425.401     173.101
  H     -321.785    -425.440     174.820
  H     -322.836    -424.530     173.763

 6  7  8  9  10  11  12  13  14  15  16  26  30  31  32  33  35 0
 6-311+G(2d,p)
 ****
 37  38 0
 6-311+G(2d,p)
 ****
 1  2  3  4  5  17  18  19  20  21  22  23  24  25 0
 3-21G
 ****
 27  28  29  34  36  39  40  41  42  43  44  45  46 0
 3-21G
 ****


