%nproc=1
%NoSave
%Mem=1900MB
#P OB98/GEN NMR

erre ene a

0 1
  C      -21.750     -76.412      -9.383
  O      -21.625     -76.953      -8.085
  H      -21.436     -75.366      -9.355
  H      -22.788     -76.457      -9.718
  H      -21.107     -76.952     -10.084
  P      -22.083     -78.467      -7.833
  C      -20.591     -79.729      -6.147
  O      -21.679     -78.829      -6.322
  C      -19.259     -78.978      -6.265
  O      -19.309     -77.847      -5.360
  C      -18.056     -79.852      -5.882
  O      -17.041     -79.867      -6.882
  C      -17.686     -79.343      -4.493
  O      -16.333     -79.539      -4.142
  C      -18.136     -77.880      -4.526
  N      -18.427     -77.321      -3.207
  C      -17.345     -76.899      -2.439
  O      -16.169     -76.947      -2.789
  N      -17.659     -76.390      -1.205
  C      -18.909     -76.279      -0.674
  O      -19.127     -75.812       0.437
  C      -20.007     -76.769      -1.521
  C      -19.720     -77.260      -2.728
  O      -21.629     -79.456      -8.853
  O      -23.681     -78.384      -7.766
  H      -16.212     -79.168      -3.242
  H      -24.060     -78.738      -8.593
  H      -16.886     -76.066      -0.646
  H      -21.012     -76.708      -1.125
  H      -20.507     -77.628      -3.380
  H      -17.372     -77.253      -4.988
  H      -18.291     -79.884      -3.755
  H      -18.349     -80.905      -5.806
  H      -19.166     -78.583      -7.282
  H      -20.662     -80.498      -6.922
  H      -20.662     -80.205      -5.163
  P      -16.866     -80.996      -7.994
  C      -16.120     -79.435      -9.974
  O      -15.803     -80.488      -9.074
  O      -18.127     -81.593      -8.521
  O      -16.062     -82.165      -7.228
  H      -16.362     -83.008      -7.622
  H      -15.281     -79.246     -10.611
  H      -16.353     -78.550      -9.420
  H      -16.964     -79.716     -10.569

 6  7  8  9  10  11  12  13  14  15  16  26  31  32  33  34  35 0
 6-311+G(2d,p)
 ****
 36  37 0
 6-311+G(2d,p)
 ****
 1  2  3  4  5  17  18  19  20  21  22  23  24  25 0
 3-21G
 ****
 27  28  29  30  38  39  40  41  42  43  44  45 0
 3-21G
 ****


