%nproc=1
%NoSave
%Mem=1900MB
#P OB98/GEN NMR

erre ene a

0 1
  C      -63.007      10.215      68.234
  O      -62.553       9.759      66.971
  P      -63.143      10.451      65.653
  C      -64.715       8.430      65.197
  O      -64.599       9.833      65.387
  C      -66.183       8.037      65.018
  O      -66.929       8.397      66.221
  C      -66.876       8.721      63.830
  O      -67.833       7.796      63.295
  C      -67.600       9.878      64.494
  O      -68.657      10.401      63.705
  C      -68.047       9.203      65.796
  N      -68.445      10.162      66.826
  C      -69.663       9.947      67.463
  O      -70.416       9.007      67.210
  N      -70.032      10.897      68.377
  C      -69.367      12.058      68.646
  O      -69.811      12.924      69.390
  C      -68.086      12.231      67.943
  C      -67.689      11.291      67.080
  O      -62.247       9.830      64.481
  O      -63.099      11.942      65.659
  H      -69.109      11.082      64.236
  H      -61.552      10.460      64.213
  H      -70.907      10.751      68.857
  H      -67.521      13.131      68.147
  H      -66.759      11.403      66.532
  H      -68.880       8.516      65.597
  H      -66.889      10.690      64.688
  H      -66.182       9.048      63.048
  H      -66.242       6.946      64.916
  H      -64.310       7.916      66.070
  H      -64.126       8.128      64.324
  P      -67.978       7.704      61.697
  C      -70.081       9.246      61.889
  O      -68.860       8.962      61.243
  O      -68.982       6.462      61.560
  O      -66.680       7.507      60.986
  H      -69.709       6.496      62.202
  H      -70.044       8.989      62.951
  H      -70.884       8.683      61.410
  H      -70.295      10.314      61.793
  H      -62.523       9.658      69.009
  H      -64.066      10.077      68.303
  H      -62.774      11.254      68.343

 3  4  5  6  7  8  9  10  11  12  13  23  28  29  30  31  32 0
 6-311+G(2d,p)
 ****
 33  34 0
 6-311+G(2d,p)
 ****
 1  2  14  15  16  17  18  19  20  21  22  24  25  26 0
 3-21G
 ****
 27  35  36  37  38  39  40  41  42  43  44  45 0
 3-21G
 ****


