%nproc=1
%NoSave
%Mem=1900MB
#P OB98/GEN NMR

erre ene a

0 1
  C     -187.429     283.238    -545.255
  O     -187.096     281.885    -545.022
  H     -186.750     283.643    -546.010
  H     -187.303     283.815    -544.333
  H     -188.458     283.326    -545.615
  P     -188.028     281.072    -544.003
  C     -186.566     281.632    -541.929
  O     -187.835     281.762    -542.562
  C     -186.567     282.330    -540.567
  O     -187.717     281.859    -539.800
  C     -185.307     282.068    -539.720
  O     -185.017     283.260    -538.977
  C     -185.777     280.992    -538.741
  O     -184.965     280.939    -537.572
  C     -187.211     281.459    -538.502
  N     -189.904     280.243    -534.428
  C     -189.231     281.415    -534.740
  N     -189.287     282.413    -533.832
  N     -188.567     281.587    -535.855
  C     -188.627     280.509    -536.689
  C     -189.247     279.308    -536.483
  C     -189.959     279.117    -535.236
  O     -190.554     278.095    -534.888
  N     -189.054     278.464    -537.562
  C     -188.313     279.162    -538.394
  N     -188.033     280.412    -537.918
  O     -187.263     279.675    -543.859
  O     -189.446     280.888    -544.436
  H     -185.341     280.256    -536.977
  H     -187.617     279.024    -544.495
  H     -190.386     280.162    -533.546
  H     -187.959     278.811    -539.359
  H     -187.270     282.321    -537.828
  H     -185.751     280.009    -539.221
  H     -189.817     282.373    -532.977
  H     -184.427     281.764    -540.301
  H     -188.838     283.293    -534.076
  H     -186.720     283.408    -540.722
  H     -185.803     282.088    -542.567
  H     -186.342     280.563    -541.801
  P     -183.916     284.266    -539.565
  C     -181.870     283.114    -538.436
  O     -182.516     283.482    -539.642
  O     -183.687     285.284    -538.346
  O     -184.344     284.975    -540.808
  H     -183.402     286.150    -538.697
  H     -180.957     282.604    -538.662
  H     -182.510     282.468    -537.872
  H     -181.655     283.992    -537.864

 6  7  8  9  10  11  12  13  14  15  26  29  33  34 0
 6-311+G(2d,p)
 ****
 36  38  39  40  41 0
 6-311+G(2d,p)
 ****
 1  2  3  4  5  16  17  18  19  20  21  22  23  24  25 0
 3-21G
 ****
 27  28  30  31  32  35  37  42  43  44  45  46  47 0
 3-21G
 ****
 48  49 0
 3-21G
 ****


