%nproc=1
%NoSave
%Mem=1900MB
#P OB98/GEN NMR

erre ene a

0 1
  C       48.174       2.703     -17.068
  O       47.419       2.469     -18.241
  H       49.062       3.283     -17.335
  H       48.493       1.762     -16.614
  H       47.583       3.280     -16.353
  P       46.217       1.408     -18.167
  C       44.626       2.124     -20.065
  O       45.688       1.256     -19.678
  C       43.910       1.602     -21.309
  O       44.743       1.752     -22.479
  C       43.575       0.120     -21.258
  O       42.612      -0.234     -20.292
  C       43.310      -0.192     -22.722
  O       41.985       0.154     -23.122
  C       44.334       0.736     -23.422
  N       45.477       0.000     -23.951
  C       45.455      -0.260     -25.316
  O       44.531       0.074     -26.058
  N       46.525      -0.957     -25.807
  C       47.566      -1.445     -25.073
  O       48.487      -2.081     -25.571
  C       47.515      -1.172     -23.629
  C       46.489      -0.470     -23.140
  O       45.138       1.720     -17.174
  O       46.953       0.013     -17.900
  H       41.851       1.091     -22.882
  H       46.313      -0.675     -17.592
  H       46.536      -1.143     -26.798
  H       48.318      -1.554     -23.014
  H       46.431      -0.253     -22.076
  H       43.856       1.264     -24.258
  H       43.451      -1.251     -22.950
  H       44.486      -0.428     -20.985
  H       43.011       2.208     -21.463
  H       45.061       3.106     -20.285
  H       43.919       2.228     -19.236
  P       42.702      -1.545     -19.390
  C       42.744      -0.294     -17.095
  O       42.080      -1.217     -17.950
  O       43.985      -2.309     -19.444
  O       41.554      -2.472     -20.048
  H       41.858      -3.398     -19.977
  H       42.195      -0.195     -16.182
  H       42.807       0.658     -17.578
  H       43.730      -0.651     -16.881

 6  7  8  9  10  11  12  13  14  15  16  26  31  32  33  34  35 0
 6-311+G(2d,p)
 ****
 36  37 0
 6-311+G(2d,p)
 ****
 1  2  3  4  5  17  18  19  20  21  22  23  24  25 0
 3-21G
 ****
 27  28  29  30  38  39  40  41  42  43  44  45 0
 3-21G
 ****


