%nproc=1
%NoSave
%Mem=1900MB
#P OB98/GEN NMR

erre ene a

0 1
  C      195.650     413.823     170.390
  O      196.546     413.117     171.235
  P      197.729     413.964     171.929
  C      199.116     414.102     169.733
  O      199.064     413.671     171.088
  C      199.671     413.001     168.820
  O      199.612     413.456     167.441
  C      201.139     412.623     169.115
  O      201.255     411.217     168.860
  C      201.894     413.444     168.071
  O      203.225     413.006     167.849
  C      200.945     413.311     166.893
  N      204.003     414.706     163.029
  C      203.995     413.602     163.817
  N      203.133     413.290     164.828
  C      202.213     414.259     164.974
  C      202.107     415.457     164.257
  C      203.059     415.659     163.238
  N      203.074     416.790     162.441
  N      201.046     416.202     164.713
  C      200.525     415.493     165.691
  N      201.172     414.313     165.868
  O      197.981     413.168     173.302
  O      197.418     415.410     172.170
  H      203.622     413.519     167.127
  H      198.164     413.773     174.037
  H      204.772     412.869     163.605
  H      199.684     415.795     166.303
  H      200.996     412.316     166.422
  H      201.952     414.487     168.411
  H      201.453     412.827     170.144
  H      199.033     412.121     168.904
  H      199.769     414.977     169.657
  H      203.907     416.935     161.890
  H      202.504     417.572     162.745
  H      198.113     414.415     169.407
  P      201.528     410.226     170.084
  C      204.088     410.444     170.281
  O      203.010     409.648     169.810
  O      200.615     408.974     169.678
  O      201.248     410.778     171.459
  H      200.787     408.686     168.761
  H      205.010     409.899     170.114
  H      203.970     410.650     171.347
  H      204.129     411.384     169.717
  H      194.920     413.145     169.999
  H      196.195     414.266     169.583
  H      195.159     414.590     170.952

 3  4  5  6  7  8  9  10  11  12  22  25  29  30  31  32 0
 6-311+G(2d,p)
 ****
 33  36  37 0
 6-311+G(2d,p)
 ****
 1  2  13  14  15  16  17  18  19  20  21  23  24  26 0
 3-21G
 ****
 27  28  34  35  38  39  40  41  42  43  44  45  46  47  48 0
 3-21G
 ****


