%nproc=1
%NoSave
%Mem=1900MB
#P OB98/GEN NMR

erre ene a

0 1
  C        5.669      97.579     194.628
  O        5.373      98.139     195.907
  P        4.489      97.290     196.943
  C        5.904      97.726     199.045
  O        4.651      97.933     198.407
  C        5.988      98.429     200.408
  O        6.363      99.822     200.249
  C        4.681      98.399     201.216
  O        5.046      98.279     202.595
  C        4.093      99.766     200.933
  O        3.107     100.142     201.880
  C        5.367     100.618     200.926
  N        5.173     101.905     200.278
  C        4.532     102.902     201.015
  O        4.065     102.644     202.123
  N        4.412     104.155     200.459
  C        4.763     104.345     199.226
  N        4.649     105.602     198.719
  C        5.279     103.265     198.359
  C        5.478     102.091     198.952
  O        4.674      95.812     196.881
  O        2.989      97.700     196.546
  H        2.751     101.024     201.640
  H        2.407      96.926     196.678
  H        5.480     103.451     197.314
  H        5.858     101.240     198.405
  H        5.726     100.793     201.947
  H        3.627      99.767     199.941
  H        4.023      97.566     200.948
  H        6.786      97.942     200.987
  H        4.270     106.326     199.318
  H        6.700      98.102     198.399
  H        4.949     105.840     197.782
  H        6.080      96.649     199.145
  P        4.813      96.875     203.343
  C        7.302      96.698     204.068
  O        5.950      96.716     204.462
  O        5.302      95.826     202.228
  O        3.409      96.572     203.751
  H        4.860      94.972     202.381
  H        7.928      96.868     204.948
  H        7.517      97.485     203.338
  H        7.554      95.720     203.643
  H        6.262      98.269     194.065
  H        4.757      97.384     194.104
  H        6.210      96.665     194.756

 3  4  5  6  7  8  9  10  11  12  13  23  27  28  29  30  32 0
 6-311+G(2d,p)
 ****
 34  35 0
 6-311+G(2d,p)
 ****
 1  2  14  15  16  17  18  19  20  21  22  24  25  26 0
 3-21G
 ****
 31  33  36  37  38  39  40  41  42  43  44  45  46 0
 3-21G
 ****


