%nproc=1
%NoSave
%Mem=1900MB
#P OB98/GEN NMR

erre ene a

0 1
  C     -557.562    -145.452    -107.162
  O     -556.648    -146.511    -107.372
  H     -557.674    -144.895    -108.098
  H     -557.189    -144.777    -106.389
  H     -558.539    -145.851    -106.866
  P     -556.335    -147.456    -106.111
  C     -553.739    -147.418    -106.151
  O     -554.917    -148.159    -106.419
  C     -552.600    -147.881    -107.059
  O     -552.094    -149.163    -106.571
  C     -553.014    -148.085    -108.528
  O     -551.939    -147.668    -109.379
  C     -553.169    -149.592    -108.638
  O     -553.032    -150.060    -109.982
  C     -552.063    -150.064    -107.696
  N     -551.938    -154.833    -109.305
  C     -551.648    -153.658    -109.975
  N     -551.272    -153.763    -111.267
  N     -551.728    -152.468    -109.417
  C     -552.090    -152.520    -108.109
  C     -552.410    -153.616    -107.338
  C     -552.346    -154.920    -107.976
  O     -552.606    -155.998    -107.450
  N     -552.764    -153.246    -106.067
  C     -552.653    -151.924    -106.059
  N     -552.244    -151.441    -107.280
  O     -557.392    -148.651    -106.275
  O     -556.430    -146.799    -104.772
  H     -552.760    -150.997    -109.951
  H     -557.637    -149.015    -105.400
  H     -551.874    -155.714    -109.788
  H     -552.865    -151.278    -105.222
  H     -551.067    -150.001    -108.156
  H     -554.161    -149.897    -108.270
  H     -551.162    -154.630    -111.750
  H     -553.926    -147.551    -108.805
  H     -551.051    -152.906    -111.773
  H     -551.766    -147.169    -106.982
  H     -553.451    -147.561    -105.104
  H     -553.934    -146.354    -106.326
  P     -552.239    -146.489    -110.427
  C     -552.024    -148.214    -112.371
  O     -551.670    -146.921    -111.868
  O     -551.235    -145.330    -109.967
  O     -553.661    -146.009    -110.412
  H     -551.730    -144.611    -109.550
  H     -551.575    -148.358    -113.332
  H     -553.088    -148.283    -112.461
  H     -551.673    -148.967    -111.697

 6  7  8  9  10  11  12  13  14  15  26  29  33  34 0
 6-311+G(2d,p)
 ****
 36  38  39  40  41 0
 6-311+G(2d,p)
 ****
 1  2  3  4  5  16  17  18  19  20  21  22  23  24  25 0
 3-21G
 ****
 27  28  30  31  32  35  37  42  43  44  45  46  47 0
 3-21G
 ****
 48  49 0
 3-21G
 ****


