%nproc=1
%NoSave
%Mem=1900MB
#P OB98/GEN NMR

erre ene a

0 1
  C      641.761     350.708     345.720
  O      642.893     351.479     346.044
  H      642.011     350.057     344.879
  H      640.940     351.367     345.423
  H      641.444     350.084     346.561
  P      642.970     352.167     347.489
  C      643.960     350.199     348.836
  O      644.187     351.501     348.298
  C      645.278     349.480     349.135
  O      645.848     348.979     347.904
  C      646.325     350.408     349.765
  O      646.242     350.509     351.177
  C      647.629     349.740     349.339
  O      648.038     348.738     350.282
  C      647.276     349.096     347.992
  N      650.520     349.279     344.042
  C      650.457     348.356     345.075
  N      651.409     347.395     345.066
  N      649.565     348.400     346.021
  C      648.750     349.480     345.961
  C      648.727     350.462     345.000
  C      649.672     350.366     343.903
  O      649.757     351.149     342.963
  N      647.785     351.424     345.280
  C      647.298     351.060     346.453
  N      647.797     349.846     346.862
  O      641.686     351.578     348.247
  O      642.940     353.667     347.491
  H      647.447     347.969     350.178
  H      641.351     352.237     348.883
  H      651.215     349.180     343.325
  H      646.557     351.611     347.019
  H      647.688     348.080     347.917
  H      648.440     350.471     349.286
  H      652.167     347.361     344.406
  H      646.281     351.398     349.311
  H      651.512     346.815     345.898
  H      645.073     348.611     349.774
  H      643.397     349.647     348.086
  H      643.346     350.265     349.735
  P      646.473     351.911     351.911
  C      644.246     353.267     351.590
  O      645.058     352.453     352.409
  O      646.839     352.893     350.707
  O      647.518     351.917     352.980
  H      647.812     353.016     350.642
  H      643.347     353.517     352.114
  H      644.000     352.738     350.693
  H      644.775     354.163     351.342

 6  7  8  9  10  11  12  13  14  15  26  29  33  34 0
 6-311+G(2d,p)
 ****
 36  38  39  40  41 0
 6-311+G(2d,p)
 ****
 1  2  3  4  5  16  17  18  19  20  21  22  23  24  25 0
 3-21G
 ****
 27  28  30  31  32  35  37  42  43  44  45  46  47 0
 3-21G
 ****
 48  49 0
 3-21G
 ****


