%nproc=1
%NoSave
%Mem=1900MB
#P OB98/GEN NMR

erre ene a

0 1
  C      -20.733      33.098      18.894
  O      -20.472      31.708      18.801
  P      -20.751      30.736      20.038
  C      -18.183      30.193      20.094
  O      -19.373      30.477      20.797
  C      -17.035      30.999      20.715
  O      -17.363      32.403      20.727
  C      -16.760      30.567      22.153
  O      -15.722      29.601      22.195
  C      -16.396      31.875      22.828
  O      -15.019      32.208      22.573
  C      -17.331      32.871      22.102
  N      -18.723      32.990      22.576
  C      -18.992      32.946      23.940
  O      -18.126      32.842      24.803
  N      -20.318      33.001      24.287
  C      -21.364      33.139      23.421
  O      -22.538      32.946      23.715
  C      -21.000      33.452      22.036
  C      -19.721      33.341      21.678
  O      -21.054      29.332      19.333
  O      -21.859      31.155      20.948
  H      -14.910      32.254      21.606
  H      -22.015      29.177      19.273
  H      -20.529      32.829      25.265
  H      -21.790      33.707      21.343
  H      -19.433      33.531      20.647
  H      -16.904      33.880      22.100
  H      -16.495      31.802      23.909
  H      -17.676      30.178      22.615
  H      -16.137      30.867      20.099
  H      -18.302      30.450      19.037
  H      -17.964      29.122      20.145
  P      -15.977      28.199      22.922
  C      -13.556      28.277      23.761
  O      -14.916      28.148      24.124
  O      -15.992      27.003      22.029
  O      -17.387      28.415      23.651
  H      -18.104      28.032      23.105
  H      -12.961      28.407      24.667
  H      -13.412      29.146      23.112
  H      -13.224      27.371      23.247
  H      -20.482      33.571      17.967
  H      -20.143      33.520      19.681
  H      -21.771      33.253      19.104

 3  4  5  6  7  8  9  10  11  12  13  23  28  29  30  31  32 0
 6-311+G(2d,p)
 ****
 33  34 0
 6-311+G(2d,p)
 ****
 1  2  14  15  16  17  18  19  20  21  22  24  25  26  27 0
 3-21G
 ****
 35  36  37  38  39  40  41  42  43  44  45 0
 3-21G
 ****


