%nproc=1
%NoSave
%Mem=1900MB
#P OB98/GEN NMR

erre ene a

0 1
  C     1693.822     -52.557      10.588
  O     1694.436     -51.989       9.426
  P     1693.844     -52.421       8.004
  C     1692.153     -50.449       8.241
  O     1692.358     -51.835       7.951
  C     1691.713     -49.694       6.995
  O     1690.539     -50.297       6.445
  C     1691.351     -48.251       7.245
  O     1692.522     -47.464       7.383
  C     1690.534     -47.928       6.002
  O     1691.363     -47.499       4.921
  C     1689.838     -49.274       5.693
  N     1688.428     -49.265       5.981
  C     1687.601     -48.814       4.945
  O     1688.085     -48.451       3.891
  N     1686.238     -48.763       5.178
  C     1685.757     -49.112       6.335
  N     1684.417     -49.048       6.483
  C     1686.608     -49.573       7.450
  C     1687.906     -49.618       7.220
  O     1693.637     -53.990       8.153
  O     1694.733     -52.066       6.838
  H     1692.089     -48.149       4.853
  H     1693.693     -54.435       7.283
  H     1686.154     -49.871       8.386
  H     1688.612     -49.942       7.976
  H     1689.973     -49.517       4.635
  H     1689.821     -47.105       6.196
  H     1690.724     -48.157       8.139
  H     1692.524     -49.771       6.248
  H     1683.861     -48.718       5.704
  H     1693.101     -50.035       8.615
  H     1683.945     -49.333       7.339
  H     1691.407     -50.368       9.032
  P     1693.201     -47.379       8.830
  C     1695.562     -48.193       8.198
  O     1694.331     -48.527       8.817
  O     1692.081     -48.027       9.773
  O     1693.631     -46.035       9.308
  H     1692.355     -47.943      10.704
  H     1696.282     -48.988       8.390
  H     1695.947     -47.250       8.588
  H     1695.418     -48.102       7.112
  H     1694.310     -52.188      11.466
  H     1693.910     -53.623      10.553
  H     1692.787     -52.285      10.614

 3  4  5  6  7  8  9  10  11  12  13  21  23  27  28  29  30  32 0
 6-311+G(2d,p)
 ****
 34  35 0
 6-311+G(2d,p)
 ****
 1  2  14  15  16  17  18  19  20  22  24  25  26 0
 3-21G
 ****
 31  33  36  37  38  39  40  41  42  43  44  45  46 0
 3-21G
 ****


