%nproc=1
%NoSave
%Mem=1900MB
#P OB98/GEN NMR

erre ene a

0 1
  C     -521.412    -317.894     -99.772
  O     -521.992    -318.280    -101.005
  H     -520.408    -317.514     -99.959
  H     -521.345    -318.756     -99.103
  H     -522.010    -317.100     -99.307
  P     -523.539    -318.699    -100.981
  C     -524.335    -316.818    -102.627
  O     -524.353    -317.364    -101.320
  C     -524.214    -315.290    -102.583
  O     -522.890    -314.951    -102.098
  C     -524.413    -314.611    -103.937
  O     -525.074    -313.357    -103.726
  C     -522.987    -314.353    -104.407
  O     -522.930    -313.294    -105.366
  C     -522.268    -314.072    -103.079
  N     -520.829    -314.290    -103.171
  C     -520.135    -313.481    -104.069
  O     -520.733    -312.641    -104.747
  N     -518.782    -313.655    -104.216
  C     -518.182    -314.617    -103.565
  N     -516.840    -314.762    -103.761
  C     -518.897    -315.527    -102.637
  C     -520.198    -315.303    -102.485
  O     -523.795    -318.912     -99.412
  O     -523.871    -319.885    -101.826
  H     -522.026    -313.283    -105.759
  H     -523.404    -318.210     -98.859
  H     -518.350    -316.315    -102.131
  H     -520.792    -315.915    -101.815
  H     -522.453    -313.043    -102.751
  H     -522.583    -315.254    -104.883
  H     -524.990    -315.214    -104.636
  H     -524.926    -314.905    -101.840
  H     -516.405    -314.121    -104.430
  H     -525.252    -317.088    -103.170
  H     -516.297    -315.498    -103.362
  H     -523.481    -317.249    -103.166
  P     -526.667    -313.318    -103.666
  C     -526.950    -311.695    -101.657
  O     -527.144    -313.014    -102.155
  O     -527.379    -314.439    -104.334
  O     -527.012    -311.925    -104.399
  H     -527.790    -312.074    -104.969
  H     -527.309    -311.637    -100.651
  H     -527.488    -311.000    -102.268
  H     -525.907    -311.456    -101.678

 6  7  8  9  10  11  12  13  14  15  16  26  30  31  32  33  35 0
 6-311+G(2d,p)
 ****
 37  38 0
 6-311+G(2d,p)
 ****
 1  2  3  4  5  17  18  19  20  21  22  23  24  25 0
 3-21G
 ****
 27  28  29  34  36  39  40  41  42  43  44  45  46 0
 3-21G
 ****


