%nproc=1
%NoSave
%Mem=1900MB
#P OB98/GEN NMR

erre ene a

0 1
  C      -91.735    -422.989    -524.000
  O      -90.644    -423.165    -523.083
  P      -90.948    -422.777    -521.547
  C      -90.375    -420.241    -521.691
  O      -91.385    -421.229    -521.504
  C      -90.977    -418.836    -521.588
  O      -91.965    -418.576    -522.594
  C      -91.668    -418.574    -520.250
  O      -90.701    -418.276    -519.261
  C      -92.560    -417.387    -520.590
  O      -91.827    -416.142    -520.507
  C      -92.953    -417.669    -522.052
  N      -97.880    -417.236    -520.884
  C      -96.786    -416.549    -520.390
  N      -97.041    -415.576    -519.494
  N      -95.553    -416.769    -520.765
  C      -95.437    -417.764    -521.678
  C      -96.453    -418.507    -522.260
  C      -97.810    -418.247    -521.831
  O      -98.811    -418.816    -522.250
  N      -95.953    -419.389    -523.195
  C      -94.644    -419.251    -523.090
  N      -94.280    -418.242    -522.229
  O      -89.497    -422.787    -520.874
  O      -91.886    -423.721    -520.865
  H      -92.436    -415.403    -520.700
  H      -89.419    -423.546    -520.261
  H      -98.802    -417.031    -520.547
  H      -93.915    -419.853    -523.620
  H      -92.938    -416.756    -522.659
  H      -93.398    -417.300    -519.905
  H      -97.971    -415.339    -519.156
  H      -92.285    -419.435    -519.970
  H      -96.254    -415.042    -519.124
  H      -90.147    -418.107    -521.723
  H      -89.904    -420.371    -522.670
  H      -89.590    -420.397    -520.949
  P      -90.238    -419.463    -518.277
  C      -91.628    -418.907    -516.160
  O      -91.459    -419.754    -517.277
  O      -89.130    -418.769    -517.356
  O      -89.691    -420.659    -518.978
  H      -88.366    -419.357    -517.261
  H      -92.700    -418.883    -515.903
  H      -91.288    -417.894    -516.358
  H      -91.071    -419.308    -515.302
  H      -91.424    -423.275    -524.983
  H      -92.035    -421.962    -524.005
  H      -92.559    -423.599    -523.695

 3  4  5  6  7  8  9  10  11  12  23  26  30  31 0
 6-311+G(2d,p)
 ****
 33  35  36  37  38 0
 6-311+G(2d,p)
 ****
 1  2  13  14  15  16  17  18  19  20  21  22  24  25 0
 3-21G
 ****
 27  28  29  32  34  39  40  41  42  43  44  45  46  47  48  49 0
 3-21G
 ****


