%nproc=1
%NoSave
%Mem=1900MB
#P OB98/GEN NMR

erre ene a

0 1
  C      112.161    -489.773     -48.665
  O      112.834    -488.575     -48.999
  P      113.906    -488.567     -50.187
  C      115.230    -486.776     -51.472
  O      114.077    -487.051     -50.681
  C      114.921    -485.696     -52.508
  O      114.222    -486.272     -53.634
  C      114.018    -484.583     -51.992
  O      114.741    -483.687     -51.169
  C      113.512    -483.986     -53.299
  O      114.479    -483.077     -53.847
  C      113.382    -485.233     -54.186
  N      109.890    -487.121     -57.390
  C      111.115    -486.589     -57.603
  N      111.971    -486.070     -56.697
  C      111.437    -486.118     -55.464
  C      110.187    -486.594     -55.099
  C      109.400    -487.139     -56.128
  N      108.178    -487.742     -55.915
  N      109.992    -486.435     -53.738
  C      111.096    -485.867     -53.299
  N      112.019    -485.716     -54.293
  O      113.662    -489.563     -51.275
  O      115.293    -488.865     -49.448
  H      114.621    -482.369     -53.186
  H      115.679    -489.689     -49.804
  H      111.452    -486.591     -58.635
  H      111.277    -485.568     -52.276
  H      113.740    -485.046     -55.208
  H      112.579    -483.430     -53.175
  H      113.173    -485.013     -51.441
  H      115.873    -485.288     -52.870
  H      115.532    -487.699     -51.974
  H      107.766    -488.226     -56.695
  H      107.942    -488.034     -54.968
  H      116.047    -486.449     -50.817
  P      113.992    -482.446     -50.489
  C      113.784    -481.461     -48.133
  O      114.368    -482.472     -48.929
  O      112.532    -482.326     -50.791
  O      114.801    -481.178     -51.028
  H      114.197    -480.417     -51.113
  H      114.325    -480.519     -48.278
  H      113.864    -481.757     -47.081
  H      112.730    -481.321     -48.382
  H      111.488    -489.590     -47.854
  H      112.876    -490.515     -48.375
  H      111.610    -490.121     -49.514

 3  4  5  6  7  8  9  10  11  12  22  25  29  30  31  32 0
 6-311+G(2d,p)
 ****
 33  36  37 0
 6-311+G(2d,p)
 ****
 1  2  13  14  15  16  17  18  19  20  21  23  24  26 0
 3-21G
 ****
 27  28  34  35  38  39  40  41  42  43  44  45  46  47  48 0
 3-21G
 ****


