%nproc=1
%NoSave
%Mem=1900MB
#P OB98/GEN NMR

erre ene a

0 1
  C      119.352    -792.401      49.241
  O      120.331    -791.676      49.960
  H      118.667    -791.690      48.770
  H      118.785    -793.037      49.925
  H      119.819    -793.009      48.463
  P      121.555    -792.521      50.561
  C      120.996    -791.802      52.991
  O      121.167    -792.874      52.080
  C      120.955    -792.328      54.427
  O      119.691    -792.984      54.680
  C      122.041    -793.349      54.749
  O      123.273    -792.721      55.075
  C      121.428    -794.029      55.959
  O      121.585    -793.188      57.123
  C      119.947    -794.113      55.562
  N      116.362    -797.649      54.958
  C      116.379    -796.525      55.768
  N      115.287    -796.323      56.539
  N      117.376    -795.687      55.830
  C      118.406    -796.017      55.017
  C      118.509    -797.097      54.166
  C      117.396    -798.016      54.102
  O      117.318    -799.011      53.386
  N      119.701    -797.098      53.498
  C      120.328    -796.028      53.947
  N      119.589    -795.346      54.880
  O      122.715    -791.427      50.727
  O      122.008    -793.670      49.726
  H      121.178    -793.665      57.864
  H      123.575    -791.848      50.532
  H      115.575    -798.275      54.963
  H      121.318    -795.713      53.637
  H      119.278    -794.014      56.426
  H      121.901    -794.985      56.195
  H      114.507    -796.962      56.575
  H      122.159    -794.080      53.939
  H      115.261    -795.497      57.112
  H      121.023    -791.466      55.101
  H      120.055    -791.284      52.769
  H      121.827    -791.099      52.870
  P      124.602    -793.630      55.029
  C      125.559    -793.078      57.381
  O      124.902    -794.032      56.552
  O      125.749    -792.562      54.697
  O      124.568    -794.747      54.042
  H      126.510    -793.011      54.291
  H      125.689    -793.487      58.361
  H      124.966    -792.189      57.441
  H      126.515    -792.841      56.964

 6  7  8  9  10  11  12  13  14  15  26  29  33  34 0
 6-311+G(2d,p)
 ****
 36  38  39  40  41 0
 6-311+G(2d,p)
 ****
 1  2  3  4  5  16  17  18  19  20  21  22  23  24  25 0
 3-21G
 ****
 27  28  30  31  32  35  37  42  43  44  45  46  47 0
 3-21G
 ****
 48  49 0
 3-21G
 ****


