%nproc=1
%NoSave
%Mem=1900MB
#P OB98/GEN NMR

erre ene a

0 1
  C      -15.203      36.521      70.839
  O      -14.619      35.501      71.625
  H      -14.413      37.197      70.497
  H      -15.920      37.091      71.435
  H      -15.702      36.090      69.966
  P      -15.610      34.373      72.193
  C      -15.670      35.620      74.476
  O      -16.415      35.051      73.405
  C      -16.622      36.144      75.549
  O      -17.359      37.273      75.027
  C      -17.678      35.136      75.993
  O      -17.157      34.195      76.918
  C      -18.730      36.058      76.596
  O      -18.412      36.409      77.948
  C      -18.638      37.300      75.697
  N      -22.623      40.029      74.062
  C      -21.695      40.267      75.017
  N      -20.647      39.492      75.379
  C      -20.610      38.376      74.634
  C      -21.488      37.993      73.635
  C      -22.538      38.882      73.348
  N      -23.505      38.623      72.403
  N      -21.145      36.753      73.132
  C      -20.072      36.396      73.810
  N      -19.711      37.348      74.724
  O      -14.610      33.356      72.924
  O      -16.454      33.690      71.168
  H      -18.149      35.582      78.398
  H      -14.379      32.630      72.314
  H      -21.809      41.200      75.563
  H      -19.532      35.466      73.682
  H      -18.682      38.232      76.275
  H      -19.713      35.584      76.606
  H      -18.109      34.627      75.122
  H      -16.028      36.491      76.405
  H      -15.065      36.452      74.093
  H      -15.003      34.857      74.891
  H      -24.244      39.297      72.267
  H      -23.513      37.723      71.941
  P      -17.918      32.796      77.094
  C      -18.898      33.399      79.429
  O      -19.162      33.039      78.079
  O      -16.897      31.932      77.974
  O      -18.271      32.111      75.815
  H      -16.396      31.316      77.409
  H      -19.823      33.524      79.952
  H      -18.348      34.316      79.452
  H      -18.325      32.627      79.898

 6  7  8  9  10  11  12  13  14  15  25  28  32  33  34  35 0
 6-311+G(2d,p)
 ****
 36  37  40 0
 6-311+G(2d,p)
 ****
 1  2  3  4  5  16  17  18  19  20  21  22  23  24 0
 3-21G
 ****
 26  27  29  30  31  38  39 41  42  43  44  45  46  47  48 0
 3-21G
 ****


