%nproc=1
%NoSave
%Mem=1900MB
#P OB98/GEN NMR

erre ene a

0 1
  C     -891.400     839.451    1977.988
  O     -892.350     838.928    1978.912
  P     -892.180     837.376    1979.333
  C     -893.930     836.484    1977.606
  O     -892.570     836.456    1978.052
  C     -893.990     836.027    1976.146
  O     -893.550     834.632    1976.000
  C     -895.400     836.063    1975.568
  O     -895.810     837.391    1975.271
  C     -895.210     835.174    1974.340
  O     -894.630     835.914    1973.269
  C     -894.260     834.075    1974.845
  N     -896.870     829.997    1973.190
  C     -896.350     831.060    1972.567
  N     -895.660     832.096    1973.069
  C     -895.550     831.989    1974.416
  C     -896.060     830.974    1975.228
  C     -896.770     829.915    1974.545
  N     -897.310     828.880    1975.223
  N     -895.720     831.195    1976.515
  C     -895.070     832.340    1976.554
  N     -894.970     832.833    1975.267
  O     -893.400     837.130    1980.374
  O     -890.860     837.049    1980.004
  H     -894.450     835.294    1972.525
  H     -893.060     837.037    1981.273
  H     -896.480     831.037    1971.468
  H     -894.720     832.839    1977.417
  H     -893.530     833.796    1974.114
  H     -896.220     834.790    1973.970
  H     -896.130     835.592    1976.287
  H     -893.340     836.668    1975.558
  H     -894.350     837.480    1977.721
  H     -897.880     828.201    1974.706
  H     -897.260     828.845    1976.229
  H     -894.490     835.801    1978.261
  P     -896.750     838.123    1976.345
  C     -899.050     837.966    1975.163
  O     -898.180     837.400    1976.166
  O     -896.990     839.537    1975.638
  O     -896.250     838.183    1977.773
  H     -897.170     839.445    1974.668
  H     -900.000     837.363    1975.107
  H     -898.550     837.970    1974.151
  H     -899.340     839.005    1975.429
  H     -891.621     840.480    1977.793
  H     -891.449     838.896    1977.074
  H     -890.417     839.370    1978.403

 3  4  5  6  7  8  9  10  11  12  22  25  29  30  31  32 0
 6-311+G(2d,p)
 ****
 33  36  37 0
 6-311+G(2d,p)
 ****
 1  2  13  14  15  16  17  18  19  20  21  23  24  26 0
 3-21G
 ****
 27  28  34  35  38  39  40  41  42  43  44  45  46  47  48 0
 3-21G
 ****


