%nproc=1
%NoSave
%Mem=1900MB
#P OB98/GEN NMR

erre ene a

0 1
  C     -899.300    1014.703      79.211
  O     -898.340    1013.920      78.515
  H     -899.850    1015.309      78.486
  H     -898.800    1015.372      79.920
  H     -900.000    1014.057      79.737
  P     -897.350    1013.032      79.417
  C     -895.210    1014.221      78.507
  O     -896.020    1013.896      79.640
  C     -893.810    1014.563      78.962
  O     -893.840    1015.736      79.833
  C     -893.130    1013.474      79.793
  O     -892.610    1012.427      78.993
  C     -892.030    1014.263      80.481
  O     -890.870    1014.394      79.649
  C     -892.700    1015.629      80.726
  N     -893.100    1015.806      82.121
  C     -892.050    1016.024      83.026
  O     -890.880    1016.089      82.677
  N     -892.400    1016.146      84.330
  C     -893.660    1016.019      84.838
  O     -893.910    1016.067      86.038
  C     -894.730    1015.756      83.846
  C     -894.400    1015.657      82.558
  O     -896.880    1011.883      78.403
  O     -897.950    1012.472      80.658
  H     -897.320    1011.041      78.639
  H     -890.220    1014.915      80.169
  H     -891.650    1016.308      84.993
  H     -895.740    1015.642      84.222
  H     -895.160    1015.452      81.815
  H     -892.030    1016.445      80.459
  H     -891.720    1013.771      81.408
  H     -893.820    1013.086      80.547
  H     -893.190    1014.823      78.083
  H     -895.640    1015.082      77.988
  H     -895.210    1013.354      77.836
  P     -892.030    1011.117      79.742
  C     -889.760    1011.437      78.414
  O     -890.430    1011.284      79.672
  O     -892.370    1009.984      78.683
  O     -892.590    1010.932      81.111
  H     -892.430    1010.337      77.777
  H     -888.707    1011.533      78.580
  H     -890.124    1012.314      77.920
  H     -889.948    1010.579      77.803

 6  7  8  9  10  11  12  13  14  15  16  27  31  32  33  34  35 0
 6-311+G(2d,p)
 ****
 36  37 0
 6-311+G(2d,p)
 ****
 1  2  3  4  5  17  18  19  20  21  22  23  24  25 0
 3-21G
 ****
 26  28  29  30  38  39  40  41  42  43  44  45 0
 3-21G
 ****


