%nproc=1
%NoSave
%Mem=1900MB
#P OB98/GEN NMR

erre ene a

0 1
  C     -476.763    -352.916     153.509
  O     -476.131    -352.002     154.385
  H     -477.837    -352.957     153.709
  H     -476.609    -352.578     152.480
  H     -476.323    -353.910     153.626
  P     -476.339    -352.264     155.954
  C     -477.807    -350.409     157.025
  O     -477.775    -351.655     156.337
  C     -478.039    -349.271     156.031
  O     -479.254    -349.500     155.281
  C     -478.223    -347.900     156.675
  O     -476.981    -347.327     157.055
  C     -478.869    -347.138     155.522
  O     -477.852    -346.709     154.593
  C     -479.758    -348.204     154.877
  N     -484.122    -345.534     154.360
  C     -482.896    -345.351     153.836
  N     -481.781    -346.091     154.024
  C     -482.023    -347.138     154.837
  C     -483.228    -347.454     155.452
  C     -484.326    -346.588     155.185
  N     -485.572    -346.777     155.746
  N     -483.110    -348.595     156.214
  C     -481.854    -348.964     156.062
  N     -481.157    -348.114     155.254
  O     -475.307    -351.247     156.640
  O     -476.097    -353.671     156.408
  H     -477.471    -347.515     154.203
  H     -474.939    -351.662     157.443
  H     -482.784    -344.502     153.172
  H     -481.415    -349.845     156.517
  H     -479.700    -348.168     153.777
  H     -479.402    -346.247     155.849
  H     -478.929    -347.944     157.519
  H     -477.198    -349.264     155.330
  H     -476.848    -350.249     157.532
  H     -486.341    -346.252     155.375
  H     -485.699    -347.569     156.356
  H     -478.612    -350.441     157.764
  P     -477.000    -346.242     158.248
  C     -476.506    -343.876     157.304
  O     -477.494    -344.872     157.584
  O     -475.446    -345.985     158.532
  O     -477.734    -346.679     159.486
  H     -475.327    -345.681     159.457
  H     -476.976    -343.021     156.865
  H     -475.782    -344.273     156.624
  H     -476.021    -343.589     158.214

 6  7  8  9  10  11  12  13  14  15  25  28  32  33  34  35 0
 6-311+G(2d,p)
 ****
 36  39  40 0
 6-311+G(2d,p)
 ****
 1  2  3  4  5  16  17  18  19  20  21  22  23  24 0
 3-21G
 ****
 26  27  29  30  31  37  38  41  42  43  44  45  46  47  48 0
 3-21G
 ****


