%nproc=1
%NoSave
%Mem=1900MB
#P OB98/GEN NMR

erre ene a

0 1
  C     -234.088    -711.857      64.150
  O     -233.026    -710.958      63.898
  H     -234.422    -712.275      63.197
  H     -234.927    -711.339      64.619
  H     -233.747    -712.678      64.791
  P     -232.432    -710.114      65.129
  C     -232.977    -707.852      63.985
  O     -233.234    -708.724      65.080
  C     -233.235    -706.402      64.389
  O     -232.592    -705.491      63.475
  C     -234.703    -705.985      64.389
  O     -235.438    -706.509      65.488
  C     -234.545    -704.477      64.456
  O     -234.196    -704.089      65.802
  C     -233.365    -704.248      63.485
  N     -233.799    -703.901      62.131
  C     -234.011    -702.538      61.871
  O     -233.845    -701.692      62.759
  N     -234.458    -702.167      60.622
  C     -234.680    -703.066      59.720
  N     -235.162    -702.649      58.517
  C     -234.441    -704.510      59.944
  C     -234.009    -704.852      61.166
  O     -230.939    -709.998      65.191
  O     -233.067    -710.807      66.426
  H     -234.126    -703.121      65.805
  H     -232.715    -710.327      67.223
  H     -234.651    -705.222      59.161
  H     -233.832    -705.895      61.406
  H     -232.699    -703.460      63.862
  H     -235.463    -703.933      64.190
  H     -235.188    -706.246      63.443
  H     -232.775    -706.248      65.375
  H     -235.350    -701.658      58.416
  H     -233.626    -708.147      63.151
  H     -235.613    -703.294      57.876
  H     -231.934    -707.940      63.668
  P     -236.985    -706.886      65.248
  C     -237.850    -705.482      67.267
  O     -237.858    -705.680      65.863
  O     -237.217    -708.088      66.271
  O     -237.357    -707.248      63.840
  H     -237.090    -708.954      65.841
  H     -238.474    -704.648      67.513
  H     -236.850    -705.288      67.594
  H     -238.220    -706.360      67.753

 6  7  8  9  10  11  12  13  14  15  16  26  30  31  32  33  35 0
 6-311+G(2d,p)
 ****
 37  38 0
 6-311+G(2d,p)
 ****
 1  2  3  4  5  17  18  19  20  21  22  23  24  25 0
 3-21G
 ****
 27  28  29  34  36  39  40  41  42  43  44  45  46 0
 3-21G
 ****


