%nproc=1
%NoSave
%Mem=1900MB
#P OB98/GEN NMR

erre ene a

0 1
  C      393.600      36.858    -346.293
  O      393.710      35.432    -346.230
  P      393.259      34.716    -344.868
  C      391.548      32.958    -345.743
  O      392.842      33.205    -345.200
  C      391.656      32.041    -346.962
  O      392.221      32.736    -348.090
  C      392.566      30.845    -346.732
  O      391.903      29.855    -345.975
  C      392.889      30.417    -348.160
  O      391.939      29.458    -348.657
  C      392.803      31.740    -348.951
  N      394.093      32.176    -349.464
  C      394.165      32.365    -350.849
  O      393.181      32.143    -351.558
  N      395.355      32.774    -351.392
  C      396.389      32.952    -350.626
  N      397.541      33.353    -351.222
  C      396.358      32.736    -349.165
  C      395.191      32.351    -348.657
  O      391.864      35.421    -344.527
  O      394.241      34.871    -343.750
  H      391.746      28.864    -347.903
  H      391.742      35.481    -343.563
  H      397.246      32.888    -348.568
  H      395.076      32.166    -347.592
  H      392.120      31.631    -349.805
  H      393.875      29.940    -348.218
  H      393.483      31.166    -346.225
  H      390.646      31.696    -347.229
  H      397.526      33.487    -352.226
  H      391.072      33.898    -346.024
  H      398.403      33.514    -350.723
  H      390.920      32.509    -344.966
  P      392.780      28.638    -345.405
  C      392.059      29.151    -342.995
  O      392.053      28.205    -344.044
  O      394.081      29.398    -344.854
  O      393.130      27.544    -346.354
  H      394.748      28.749    -344.562
  H      391.366      28.819    -342.219
  H      391.738      30.131    -343.357
  H      393.062      29.220    -342.566
  H      393.932      37.199    -347.251
  H      394.206      37.297    -345.528
  H      392.579      37.144    -346.147

 3  4  5  6  7  8  9  10  11  12  13  21  23  27  28  29  30  32 0
 6-311+G(2d,p)
 ****
 34  35 0
 6-311+G(2d,p)
 ****
 1  2  14  15  16  17  18  19  20  22  24  25  26 0
 3-21G
 ****
 31  33  36  37  38  39  40  41  42  43  44  45  46 0
 3-21G
 ****


