%nproc=1
%NoSave
%Mem=1900MB
#P OB98/GEN NMR

erre ene a

0 1
  C     -484.746     460.827    -899.401
  O     -485.049     461.133    -898.061
  P     -485.592     462.615    -897.761
  C     -483.231     463.695    -897.981
  O     -484.356     463.438    -897.131
  C     -482.671     465.078    -897.701
  O     -483.689     466.091    -897.961
  C     -482.248     465.296    -896.241
  O     -480.984     464.685    -895.981
  C     -482.215     466.831    -896.171
  O     -480.952     467.345    -896.601
  C     -483.353     467.230    -897.121
  N     -484.530     467.772    -896.471
  C     -484.343     468.977    -895.761
  O     -483.234     469.489    -895.731
  N     -485.433     469.485    -895.071
  C     -486.580     468.895    -895.111
  N     -487.611     469.443    -894.451
  C     -486.806     467.602    -895.841
  C     -485.722     467.126    -896.481
  O     -486.577     462.403    -896.491
  O     -486.314     463.279    -898.911
  H     -480.287     467.003    -895.991
  H     -487.268     463.093    -896.461
  H     -487.788     467.127    -895.821
  H     -485.807     466.167    -897.051
  H     -482.990     468.011    -897.851
  H     -482.368     467.190    -895.141
  H     -483.026     464.920    -895.561
  H     -481.835     465.259    -898.371
  H     -487.408     470.320    -893.931
  H     -483.550     463.662    -899.041
  H     -488.538     469.065    -894.431
  H     -482.493     462.925    -897.811
  P     -480.773     464.072    -894.531
  C     -480.457     466.452    -893.511
  O     -479.851     465.191    -893.761
  O     -479.699     462.902    -894.781
  O     -481.993     463.584    -893.761
  H     -479.545     462.394    -893.981
  H     -479.788     467.012    -892.861
  H     -481.411     466.289    -892.981
  H     -480.645     466.978    -894.451
  H     -484.397     459.818    -899.466
  H     -483.985     461.491    -899.755
  H     -485.625     460.940    -900.000

 3  4  5  6  7  8  9  10  11  12  13  21  23  27  28  29  30  32 0
 6-311+G(2d,p)
 ****
 34  35 0
 6-311+G(2d,p)
 ****
 1  2  14  15  16  17  18  19  20  22  24  25  26 0
 3-21G
 ****
 31  33  36  37  38  39  40  41  42  43  44  45  46 0
 3-21G
 ****


