%nproc=1
%NoSave
%Mem=1900MB
#P OB98/GEN NMR

erre ene a

0 1
  C     -219.921      57.515      17.537
  O     -218.950      57.223      18.520
  H     -219.435      58.046      16.715
  H     -220.709      58.154      17.949
  H     -220.355      56.590      17.147
  P     -219.434      56.544      19.892
  C     -220.780      57.438      21.921
  O     -220.353      57.668      20.585
  C     -221.894      58.415      22.295
  O     -223.148      58.024      21.697
  C     -222.190      58.504      23.790
  O     -221.207      59.223      24.516
  C     -223.526      59.229      23.750
  O     -223.311      60.624      23.469
  C     -224.214      58.525      22.554
  N     -225.095      57.432      22.966
  C     -226.392      57.783      23.366
  O     -226.746      58.963      23.363
  N     -227.243      56.796      23.796
  C     -226.833      55.564      23.840
  N     -227.704      54.633      24.322
  C     -225.484      55.147      23.413
  C     -224.676      56.118      22.997
  O     -218.364      55.969      20.761
  O     -220.533      55.468      19.438
  H     -224.165      61.075      23.607
  H     -220.855      55.011      20.254
  H     -225.193      54.111      23.481
  H     -223.660      55.891      22.680
  H     -224.793      59.242      21.961
  H     -224.079      59.168      24.692
  H     -222.344      57.508      24.219
  H     -221.627      59.395      21.875
  H     -228.605      54.963      24.644
  H     -219.917      57.554      22.581
  H     -227.378      53.728      24.644
  H     -221.169      56.418      22.020
  P     -221.153      59.018      26.111
  C     -222.612      59.953      28.059
  O     -222.541      59.577      26.693
  O     -220.083      60.111      26.572
  O     -220.805      57.639      26.577
  H     -219.187      59.721      26.642
  H     -223.599      60.301      28.282
  H     -221.906      60.734      28.251
  H     -222.384      59.108      28.674

 6  7  8  9  10  11  12  13  14  15  16  26  30  31  32  33  35 0
 6-311+G(2d,p)
 ****
 37  38 0
 6-311+G(2d,p)
 ****
 1  2  3  4  5  17  18  19  20  21  22  23  24  25 0
 3-21G
 ****
 27  28  29  34  36  39  40  41  42  43  44  45  46 0
 3-21G
 ****


