%nproc=1
%NoSave
%Mem=1900MB
#P OB98/GEN NMR

erre ene a

0 1
  C       -4.389      36.744       1.667
  O       -4.280      35.799       0.620
  H       -3.519      37.405       1.633
  H       -4.408      36.237       2.635
  H       -5.293      37.344       1.538
  P       -5.449      34.705       0.516
  C       -3.874      33.185       1.898
  O       -5.182      33.719       1.753
  C       -3.877      32.021       2.885
  O       -4.119      32.501       4.219
  C       -4.941      30.967       2.610
  O       -4.490      30.052       1.624
  C       -5.051      30.303       3.974
  O       -3.980      29.353       4.138
  C       -4.856      31.482       4.943
  N       -7.625      32.435       9.158
  C       -6.530      31.672       8.960
  N       -5.879      31.420       7.804
  C       -6.463      32.061       6.778
  C       -7.586      32.872       6.829
  C       -8.175      33.058       8.090
  N       -9.295      33.836       8.289
  N       -7.901      33.354       5.576
  C       -6.947      32.892       4.794
  N       -6.074      32.074       5.466
  O       -5.614      34.059      -0.817
  O       -6.709      35.556       1.020
  H       -3.949      28.820       3.321
  H       -6.460      36.122       1.772
  H       -6.122      31.198       9.847
  H       -6.831      33.133       3.744
  H       -4.252      31.197       5.812
  H       -5.985      29.754       4.100
  H       -5.905      31.419       2.351
  H       -2.874      31.572       2.879
  H       -3.184      33.963       2.245
  H       -9.758      33.758       9.180
  H       -9.774      34.190       7.473
  H       -3.543      32.846       0.911
  P       -5.412      29.664       0.371
  C       -6.157      27.427       1.396
  O       -6.562      28.725       0.978
  O       -4.670      29.111      -0.795
  O       -6.196      31.013       0.025
  H       -6.577      30.956      -0.872
  H       -7.003      26.896       1.780
  H       -5.413      27.514       2.160
  H       -5.751      26.894       0.562

 6  7  8  9  10  11  12  13  14  15  25  28  32  33  34  35 0
 6-311+G(2d,p)
 ****
 36  39  40 0
 6-311+G(2d,p)
 ****
 1  2  3  4  5  16  17  18  19  20  21  22  23  24 0
 3-21G
 ****
 26  27  29  30  31  37  38  41  42  43  44  45  46  47 0
 3-21G
 ****
 48 0
 3-21G
 ****


