%nproc=1
%NoSave
%Mem=1900MB
#P OB98/GEN NMR

erre ene a

0 1
  C      -31.963     -51.855     149.742
  O      -30.605     -52.248     149.598
  P      -29.478     -51.151     149.932
  C      -27.753     -52.999     149.350
  O      -28.157     -51.647     149.170
  C      -26.583     -53.335     148.436
  O      -27.029     -53.369     147.067
  C      -25.445     -52.328     148.467
  O      -24.588     -52.530     149.582
  C      -24.730     -52.650     147.163
  O      -23.863     -53.783     147.352
  C      -25.897     -53.017     146.231
  N      -24.718     -50.412     142.053
  C      -24.066     -51.474     142.647
  N      -22.954     -51.921     142.025
  N      -24.464     -52.043     143.754
  C      -25.612     -51.517     144.243
  C      -26.348     -50.464     143.747
  C      -25.867     -49.810     142.549
  O      -26.367     -48.824     142.014
  N      -27.461     -50.230     144.512
  C      -27.419     -51.158     145.446
  N      -26.299     -51.944     145.344
  O      -29.144     -51.435     151.472
  O      -29.883     -49.736     149.702
  H      -24.429     -54.534     147.615
  H      -28.793     -50.624     151.890
  H      -24.377     -50.022     141.193
  H      -28.172     -51.295     146.210
  H      -25.660     -53.900     145.626
  H      -24.106     -51.826     146.803
  H      -22.674     -51.612     141.107
  H      -25.825     -51.301     148.435
  H      -22.484     -52.722     142.425
  H      -26.220     -54.337     148.699
  H      -28.593     -53.660     149.112
  H      -27.477     -53.149     150.399
  P      -24.512     -51.336     150.655
  C      -23.715     -52.791     152.653
  O      -23.394     -51.788     151.708
  O      -25.885     -51.479     151.460
  O      -24.346     -49.980     150.055
  H      -26.146     -50.618     151.839
  H      -24.372     -53.551     152.223
  H      -24.204     -52.333     153.517
  H      -22.792     -53.274     152.983
  H      -32.601     -52.676     149.489
  H      -32.167     -51.031     149.090
  H      -32.144     -51.562     150.755

 3  4  5  6  7  8  9  10  11  12  23  26  30  31  33  0
 6-311+G(2d,p)
 ****
 35  36  37  38 0
 6-311+G(2d,p)
 ****
 1  2  13  14  15  16  17  18  19  20  21  22  24  25  27  28  29 0
 3-21G
 ****
 32  34  39  40  41  42  43  44  45  46  47  48  49 0
 3-21G
 ****


