%nproc=1
%NoSave
%Mem=1900MB
#P OB98/GEN NMR

erre ene a

0 1
  C      398.155     222.563     273.783
  O      399.000     223.283     272.903
  H      398.776     221.972     274.461
  H      397.507     221.889     273.217
  H      397.548     223.256     274.372
  P      398.274     224.131     271.749
  C      399.014     222.667     269.721
  O      397.973     223.035     270.611
  C      398.479     221.718     268.655
  O      397.953     220.514     269.254
  C      397.333     222.284     267.820
  O      397.762     223.202     266.824
  C      396.789     221.005     267.214
  O      397.672     220.551     266.169
  C      396.837     220.060     268.438
  N      395.594     220.063     269.215
  C      395.211     218.841     269.788
  O      395.894     217.834     269.632
  N      394.036     218.791     270.499
  C      393.318     219.861     270.645
  N      392.163     219.745     271.360
  C      393.688     221.169     270.073
  C      394.824     221.197     269.376
  O      399.469     224.983     271.111
  O      397.092     224.940     272.174
  H      398.551     220.452     266.572
  H      399.155     225.436     270.287
  H      393.053     222.030     270.208
  H      395.162     222.122     268.921
  H      397.056     219.030     268.127
  H      395.801     221.122     266.768
  H      396.560     222.735     268.456
  H      399.322     221.421     268.014
  H      391.906     218.826     271.687
  H      399.804     222.167     270.303
  H      391.469     220.475     271.399
  H      399.435     223.551     269.243
  P      396.697     224.301     266.328
  C      395.880     222.816     264.349
  O      395.547     223.511     265.545
  O      397.482     225.064     265.163
  O      396.223     225.238     267.395
  H      397.236     226.010     265.137
  H      395.004     222.345     263.954
  H      396.619     222.072     264.563
  H      396.267     223.508     263.631

 6  7  8  9  10  11  12  13  14  15  16  26  30  31  32  33  35 0
 6-311+G(2d,p)
 ****
 37  38 0
 6-311+G(2d,p)
 ****
 1  2  3  4  5  17  18  19  20  21  22  23  24  25 0
 3-21G
 ****
 27  28  29  34  36  39  40  41  42  43  44  45  46 0
 3-21G
 ****


