%nproc=1
%NoSave
%Mem=1900MB
#P OB98/GEN NMR

erre ene a

0 1
  C     -125.025     326.377     163.453
  O     -126.219     325.729     163.829
  H     -124.201     325.957     164.032
  H     -125.103     327.445     163.676
  H     -124.812     326.240     162.389
  P     -127.480     325.807     162.849
  C     -128.894     326.580     164.867
  O     -128.559     326.803     163.503
  C     -128.903     327.883     165.667
  O     -127.660     328.589     165.458
  C     -130.026     328.829     165.236
  O     -131.264     328.607     165.890
  C     -129.449     330.193     165.606
  O     -129.760     330.542     166.964
  C     -127.938     329.996     165.434
  N     -125.374     333.840     163.248
  C     -125.825     333.728     164.549
  N     -125.591     334.792     165.348
  N     -126.457     332.680     165.004
  C     -126.703     331.741     164.063
  C     -126.323     331.750     162.739
  C     -125.559     332.881     162.261
  O     -125.126     333.020     161.123
  N     -126.788     330.640     162.074
  C     -127.518     330.011     162.974
  N     -127.430     330.597     164.215
  O     -128.181     324.375     163.028
  O     -127.163     326.064     161.408
  H     -129.399     331.433     167.137
  H     -128.615     324.119     162.195
  H     -124.868     334.658     162.962
  H     -128.089     329.108     162.794
  H     -127.381     330.444     166.266
  H     -129.871     330.979     164.975
  H     -125.186     335.656     165.028
  H     -130.163     328.800     164.152
  H     -126.068     334.830     166.250
  H     -128.963     327.649     166.737
  H     -128.139     325.902     165.265
  H     -129.862     326.077     164.944
  P     -132.553     328.138     165.069
  C     -133.389     330.616     165.295
  O     -133.306     329.435     164.527
  O     -133.530     327.593     166.213
  O     -132.302     327.113     164.011
  H     -133.481     326.621     166.272
  H     -133.933     331.359     164.749
  H     -132.403     330.976     165.503
  H     -133.894     330.408     166.215

 6  7  8  9  10  11  12  13  14  15  26  29  33  34 0
 6-311+G(2d,p)
 ****
 36  38  39  40  41 0
 6-311+G(2d,p)
 ****
 1  2  3  4  5  16  17  18  19  20  21  22  23  24  25 0
 3-21G
 ****
 27  28  30  31  32  35  37  42  43  44  45  46  47 0
 3-21G
 ****
 48  49 0
 3-21G
 ****


