%nproc=1
%NoSave
%Mem=1900MB
#P OB98/GEN NMR

erre ene a

0 1
  C      724.623    1029.631     753.680
  O      724.694    1029.633     752.263
  H      725.533    1029.156     754.069
  H      723.751    1029.070     754.024
  H      724.578    1030.661     754.053
  P      723.438    1030.253     751.487
  C      725.453    1031.191     750.161
  O      724.065    1030.881     750.150
  C      725.795    1032.134     749.011
  O      724.983    1033.331     749.070
  C      727.261    1032.602     748.987
  O      728.081    1031.642     748.369
  C      727.142    1033.865     748.139
  O      727.116    1033.507     746.755
  C      725.761    1034.436     748.561
  N      726.693    1039.400     749.471
  C      726.910    1038.636     748.391
  N      726.692    1037.312     748.219
  C      726.189    1036.775     749.355
  C      725.912    1037.438     750.541
  C      726.179    1038.825     750.581
  N      725.964    1039.609     751.692
  N      725.399    1036.573     751.485
  C      725.308    1035.414     750.854
  N      725.801    1035.479     749.567
  O      722.557    1031.155     752.289
  O      722.725    1028.927     750.930
  H      726.987    1034.330     746.240
  H      723.395    1028.288     750.618
  H      727.318    1039.159     747.518
  H      724.870    1034.499     751.272
  H      725.219    1034.845     747.700
  H      727.978    1034.554     748.289
  H      727.600    1032.882     749.996
  H      725.547    1031.623     748.064
  H      726.051    1030.258     750.073
  H      726.377    1040.520     751.704
  H      725.703    1039.133     752.566
  H      725.691    1031.664     751.122
  P      729.689    1031.732     748.469
  C      729.831    1029.189     748.086
  O      730.239    1030.488     747.621
  O      730.216    1031.858     749.865
  O      730.059    1032.991     747.536
  H      730.968    1033.303     747.747
  H      730.251    1028.435     747.453
  H      728.763    1029.121     748.062
  H      730.175    1029.045     749.089

 6  7  8  9  10  11  12  13  14  15  25  28  32  33  34  35 0
 6-311+G(2d,p)
 ****
 36  39  40 0
 6-311+G(2d,p)
 ****
 1  2  3  4  5  16  17  18  19  20  21  22  23  24 0
 3-21G
 ****
 26  27  29  30  31  37  38  41  42  43  44  45  46  47 0
 3-21G
 ****
 48 0
 3-21G
 ****


