%nproc=1
%NoSave
%Mem=1900MB
#P OB98/GEN NMR

erre ene a

0 1
  C      533.101      29.537     682.828
  O      533.663      28.251     682.681
  H      532.359      29.501     683.630
  H      532.604      29.834     681.901
  H      533.863      30.273     683.092
  P      534.994      28.086     681.808
  C      534.285      27.619     679.368
  O      534.658      27.059     680.622
  C      533.443      26.626     678.558
  O      534.240      25.444     678.284
  C      532.213      26.158     679.345
  O      531.136      25.787     678.487
  C      532.721      24.916     680.059
  O      531.677      24.018     680.437
  C      533.687      24.341     679.023
  N      537.279      20.806     678.237
  C      536.246      21.208     677.408
  N      536.169      20.586     676.209
  N      535.367      22.113     677.730
  C      535.524      22.600     678.987
  C      536.488      22.272     679.911
  C      537.481      21.286     679.528
  O      538.396      20.882     680.231
  N      536.318      22.972     681.080
  C      535.254      23.712     680.867
  N      534.751      23.549     679.603
  O      535.954      27.215     682.752
  O      535.651      29.363     681.380
  H      531.000      24.537     680.904
  H      536.886      27.345     682.494
  H      537.945      20.126     677.927
  H      534.825      24.398     681.587
  H      533.147      23.705     678.309
  H      533.222      25.235     680.981
  H      536.703      19.750     676.009
  H      531.858      26.901     680.053
  H      535.269      20.636     675.725
  H      533.181      27.060     677.591
  H      535.211      27.865     678.842
  H      533.738      28.555     679.518
  P      530.297      26.951     677.771
  C      528.319      26.837     679.535
  O      528.756      26.843     678.193
  O      530.297      26.517     676.226
  O      530.846      28.325     677.968
  H      530.783      27.175     675.696
  H      527.252      26.757     679.562
  H      528.621      27.746     680.012
  H      528.753      26.004     680.048

 6  7  8  9  10  11  12  13  14  15  26  29  33  34 0
 6-311+G(2d,p)
 ****
 36  38  39  40  41 0
 6-311+G(2d,p)
 ****
 1  2  3  4  5  16  17  18  19  20  21  22  23  24  25 0
 3-21G
 ****
 27  28  30  31  32  35  37  42  43  44  45  46  47 0
 3-21G
 ****
 48  49 0
 3-21G
 ****


