%nproc=1
%NoSave
%Mem=1900MB
#P OB98/GEN NMR

erre ene a

0 1
  C     -114.739     266.104    -221.174
  O     -113.488     266.158    -221.847
  P     -113.002     267.497    -222.586
  C     -110.702     267.814    -221.475
  O     -112.063     268.243    -221.526
  C     -110.267     267.639    -220.019
  O     -110.980     266.509    -219.460
  C     -108.782     267.321    -219.809
  O     -107.933     268.455    -219.786
  C     -108.826     266.691    -218.421
  O     -108.925     267.725    -217.419
  C     -110.123     265.882    -218.472
  N     -108.550     261.307    -216.794
  C     -108.693     262.507    -216.170
  N     -109.101     263.681    -216.695
  C     -109.420     263.537    -217.990
  C     -109.332     262.384    -218.759
  C     -108.873     261.226    -218.107
  N     -108.756     260.004    -218.735
  N     -109.732     262.636    -220.060
  C     -110.067     263.904    -220.064
  N     -109.899     264.492    -218.841
  O     -114.104     268.318    -223.172
  O     -111.959     266.983    -223.685
  H     -109.804     268.142    -217.532
  H     -111.810     267.679    -224.356
  H     -108.431     262.517    -215.113
  H     -110.427     264.444    -220.929
  H     -110.665     265.891    -217.521
  H     -107.929     266.108    -218.189
  H     -108.428     266.572    -220.530
  H     -110.556     268.536    -219.460
  H     -110.087     268.583    -221.951
  H     -108.546     259.210    -218.161
  H     -109.151     259.909    -219.661
  H     -110.587     266.882    -222.037
  P     -107.043     268.732    -221.093
  C     -107.330     271.329    -221.268
  O     -107.660     270.048    -221.769
  O     -106.885     267.557    -222.000
  O     -105.660     269.249    -220.471
  H     -105.702     270.109    -220.025
  H     -107.718     272.081    -221.960
  H     -106.241     271.455    -221.188
  H     -107.796     271.474    -220.287
  H     -114.874     265.131    -220.751
  H     -115.527     266.303    -221.870
  H     -114.757     266.837    -220.395

 3  4  5  6  7  8  9  10  11  12  22  25  29  30  31  32 0
 6-311+G(2d,p)
 ****
 33  36  37 0
 6-311+G(2d,p)
 ****
 1  2  13  14  15  16  17  18  19  20  21  23  24  26 0
 3-21G
 ****
 27  28  34  35  38  39  40  41  42  43  44  45  46  47  48 0
 3-21G
 ****


