%nproc=1
%NoSave
%Mem=1900MB
#P OB98/GEN NMR

erre ene a

0 1
  C     -333.049     375.774     -29.932
  O     -333.420     376.093     -28.602
  H     -332.312     376.507     -30.269
  H     -333.923     375.827     -30.583
  H     -332.607     374.779     -29.974
  P     -334.520     375.139     -27.921
  C     -337.089     374.857     -28.179
  O     -335.902     375.425     -28.704
  C     -338.171     375.920     -28.043
  O     -338.410     376.560     -29.305
  C     -339.521     375.390     -27.560
  O     -339.539     375.260     -26.141
  C     -340.461     376.473     -28.052
  O     -340.473     377.616     -27.165
  C     -339.842     376.839     -29.418
  N     -343.572     376.718     -32.815
  C     -343.277     377.666     -31.857
  N     -344.122     378.711     -31.747
  N     -342.244     377.584     -31.061
  C     -341.491     376.475     -31.259
  C     -341.686     375.477     -32.196
  C     -342.816     375.581     -33.080
  O     -343.095     374.821     -34.002
  N     -340.701     374.519     -32.095
  C     -339.950     374.917     -31.083
  N     -340.395     376.087     -30.537
  O     -334.769     375.823     -26.489
  O     -334.138     373.708     -27.791
  H     -340.592     377.303     -26.259
  H     -335.000     375.132     -25.847
  H     -344.376     376.851     -33.406
  H     -339.078     374.394     -30.710
  H     -339.954     377.895     -29.654
  H     -341.492     376.111     -28.115
  H     -345.080     378.649     -32.078
  H     -339.757     374.429     -28.041
  H     -343.929     379.393     -31.023
  H     -337.793     376.675     -27.345
  H     -336.872     374.418     -27.198
  H     -337.426     374.050     -28.847
  P     -340.667     374.296     -25.494
  C     -343.114     373.731     -26.147
  O     -342.028     374.648     -26.245
  O     -340.876     374.920     -24.033
  O     -340.299     372.849     -25.449
  H     -341.328     374.265     -23.464
  H     -343.949     374.107     -26.701
  H     -343.391     373.614     -25.120
  H     -342.818     372.784     -26.547

 6  7  8  9  10  11  12  13  14  15  26  29  33  34 0
 6-311+G(2d,p)
 ****
 36  38  39  40  41 0
 6-311+G(2d,p)
 ****
 1  2  3  4  5  16  17  18  19  20  21  22  23  24  25 0
 3-21G
 ****
 27  28  30  31  32  35  37  42  43  44  45  46  47 0
 3-21G
 ****
 48  49 0
 3-21G
 ****


