%nproc=1
%NoSave
%Mem=1900MB
#P OB98/GEN NMR

erre ene a

0 1
  C      -49.578    -116.026    -118.602
  O      -50.657    -115.381    -119.279
  P      -51.974    -116.227    -119.628
  C      -53.775    -114.412    -119.370
  O      -53.064    -115.242    -120.277
  C      -52.963    -113.181    -118.945
  O      -52.569    -112.396    -120.101
  C      -53.704    -112.237    -117.986
  O      -52.727    -111.709    -117.081
  C      -54.210    -111.157    -118.922
  O      -54.564    -109.967    -118.237
  C      -53.021    -111.046    -119.881
  N      -53.369    -110.384    -121.128
  C      -53.371    -108.988    -121.131
  O      -53.187    -108.370    -120.082
  N      -53.613    -108.334    -122.315
  C      -53.970    -109.015    -123.359
  N      -54.181    -108.334    -124.518
  C      -54.155    -110.478    -123.343
  C      -53.815    -111.093    -122.214
  O      -52.487    -117.097    -118.529
  O      -51.507    -117.108    -120.885
  H      -53.765    -109.598    -117.803
  H      -51.952    -117.978    -120.843
  H      -54.533    -110.992    -124.214
  H      -53.908    -112.163    -122.105
  H      -52.193    -110.497    -119.413
  H      -55.098    -111.518    -119.454
  H      -54.493    -112.732    -117.412
  H      -52.041    -113.536    -118.466
  H      -54.075    -107.328    -124.508
  H      -54.034    -114.994    -118.481
  H      -54.411    -108.798    -125.388
  H      -54.726    -114.117    -119.826
  P      -53.169    -111.363    -115.578
  C      -50.967    -111.676    -114.235
  O      -51.891    -110.778    -114.809
  O      -53.302    -112.829    -114.932
  O      -54.455    -110.619    -115.424
  H      -53.920    -112.787    -114.179
  H      -50.043    -111.134    -114.012
  H      -50.729    -112.496    -114.918
  H      -51.372    -112.080    -113.302
  H      -48.784    -115.325    -118.447
  H      -49.222    -116.843    -119.195
  H      -49.919    -116.393    -117.657

 3  4  5  6  7  8  9  10  11  12  13  23  27  28  29  30  32 0
 6-311+G(2d,p)
 ****
 34  35 0
 6-311+G(2d,p)
 ****
 1  2  14  15  16  17  18  19  20  21  22  24  25  26 0
 3-21G
 ****
 31  33  36  37  38  39  40  41  42  43  44  45  46 0
 3-21G
 ****


