%nproc=1
%NoSave
%Mem=1900MB
#P OB98/GEN NMR

erre ene a

0 1
  C      189.812      31.671     -13.212
  O      190.311      30.941     -12.110
  H      190.617      31.787     -13.947
  H      189.489      32.665     -12.892
  H      188.980      31.144     -13.685
  P      189.288      30.486     -10.960
  C      187.581      31.683      -9.442
  O      188.720      31.824     -10.283
  C      187.754      32.528      -8.183
  O      188.970      32.151      -7.497
  C      187.890      34.021      -8.457
  O      186.643      34.607      -8.781
  C      188.510      34.496      -7.153
  O      187.510      34.680      -6.144
  C      189.443      33.320      -6.790
  N      190.840      33.606      -7.116
  C      191.522      34.428      -6.224
  O      191.015      34.897      -5.206
  N      192.807      34.754      -6.576
  C      193.405      34.458      -7.770
  O      194.455      34.973      -8.144
  C      192.660      33.536      -8.645
  C      191.427      33.169      -8.288
  O      189.804      29.459     -10.007
  O      188.023      29.938     -11.778
  H      188.043      28.961     -11.781
  H      187.996      34.920      -5.325
  H      193.295      35.386      -5.955
  H      193.132      33.218      -9.568
  H      190.844      32.516      -8.934
  H      189.373      33.091      -5.719
  H      189.034      35.446      -7.282
  H      188.608      34.185      -9.271
  H      186.907      32.328      -7.511
  H      187.478      30.626      -9.162
  H      186.687      31.992      -9.996
  P      186.453      35.393     -10.164
  C      187.876      37.019     -11.559
  O      187.577      36.535     -10.253
  O      185.063      35.860     -10.443
  O      186.932      34.342     -11.275
  H      186.248      34.285     -11.973
  H      188.634      37.772     -11.496
  H      186.993      37.438     -11.995
  H      188.226      36.211     -12.167

 6  7  8  9  10  11  12  13  14  15  16  27  31  32  33  34  35 0
 6-311+G(2d,p)
 ****
 36  37 0
 6-311+G(2d,p)
 ****
 1  2  3  4  5  17  18  19  20  21  22  23  24  25 0
 3-21G
 ****
 26  28  29  30  38  39  40  41  42  43  44  45 0
 3-21G
 ****


