%nproc=1
%NoSave
%Mem=1900MB
#P OB98/GEN NMR

erre ene a

0 1
  C     -215.138    -123.508    -162.846
  O     -214.139    -124.514    -162.795
  P     -214.578    -126.020    -163.133
  C     -212.160    -126.782    -162.427
  O     -213.563    -126.961    -162.325
  C     -211.456    -127.424    -161.229
  O     -211.609    -126.589    -160.063
  C     -212.009    -128.786    -160.827
  O     -211.564    -129.815    -161.697
  C     -211.499    -128.900    -159.395
  O     -210.122    -129.315    -159.387
  C     -211.617    -127.444    -158.901
  N     -212.804    -127.211    -158.080
  C     -212.924    -127.993    -156.935
  O     -212.093    -128.839    -156.608
  N     -214.049    -127.781    -156.183
  C     -215.072    -126.931    -156.489
  O     -216.078    -126.812    -155.803
  C     -214.904    -126.156    -157.728
  C     -213.797    -126.327    -158.454
  O     -214.107    -126.127    -164.658
  O     -216.027    -126.275    -162.898
  H     -213.364    -125.528    -164.850
  H     -209.620    -128.615    -159.848
  H     -214.147    -128.320    -155.337
  H     -215.700    -125.478    -158.008
  H     -213.661    -125.771    -159.373
  H     -210.733    -127.170    -158.313
  H     -212.064    -129.628    -158.802
  H     -213.105    -128.757    -160.824
  H     -210.385    -127.496    -161.459
  H     -211.939    -125.711    -162.449
  H     -211.811    -127.231    -163.363
  P     -212.337    -131.223    -161.601
  C     -210.333    -132.397    -162.799
  O     -211.212    -132.358    -161.697
  O     -213.072    -131.272    -163.022
  O     -213.254    -131.323    -160.426
  H     -212.504    -130.971    -163.752
  H     -209.450    -132.979    -162.523
  H     -210.015    -131.393    -163.092
  H     -210.827    -132.884    -163.643
  H     -214.704    -122.562    -162.600
  H     -215.912    -123.739    -162.145
  H     -215.551    -123.465    -163.832

 3  4  5  6  7  8  9  10  11  12  13  24  28  29  30  31  32 0
 6-311+G(2d,p)
 ****
 33  34 0
 6-311+G(2d,p)
 ****
 1  2  14  15  16  17  18  19  20  21  22  23  25  26  27 0
 3-21G
 ****
 35  36  37  38  39  40  41  42  43  44  45 0
 3-21G
 ****


