%nproc=1
%NoSave
%Mem=1900MB
#P OB98/GEN NMR

erre ene a

0 1
  C      -82.352    -268.794     -36.830
  O      -81.785    -269.754     -35.958
  H      -81.548    -268.191     -37.257
  H      -83.025    -268.139     -36.273
  H      -82.895    -269.287     -37.640
  P      -82.793    -270.810     -35.291
  C      -84.115    -272.750     -36.392
  O      -82.878    -272.058     -36.301
  C      -84.127    -273.677     -37.607
  O      -83.946    -272.877     -38.813
  C      -83.020    -274.747     -37.596
  O      -83.546    -275.935     -38.200
  C      -81.974    -274.162     -38.535
  O      -81.100    -275.155     -39.066
  C      -82.882    -273.495     -39.568
  N      -79.561    -273.018     -43.319
  C      -80.130    -274.148     -42.761
  N      -79.754    -275.338     -43.281
  N      -80.990    -274.115     -41.777
  C      -81.298    -272.858     -41.377
  C      -80.803    -271.661     -41.844
  C      -79.829    -271.715     -42.915
  O      -79.276    -270.749     -43.437
  N      -81.345    -270.602     -41.155
  C      -82.164    -271.160     -40.281
  N      -82.171    -272.524     -40.375
  O      -84.213    -270.090     -35.456
  O      -82.503    -271.159     -33.868
  H      -80.654    -274.772     -39.849
  H      -84.429    -269.578     -34.652
  H      -78.893    -273.102     -44.066
  H      -82.768    -270.624     -39.557
  H      -83.329    -274.219     -40.260
  H      -81.366    -273.417     -38.006
  H      -79.136    -275.438     -44.069
  H      -82.625    -274.980     -36.602
  H      -80.195    -276.176     -42.915
  H      -85.115    -274.141     -37.683
  H      -84.926    -272.018     -36.492
  H      -84.270    -273.332     -35.478
  P      -84.200    -277.041     -37.243
  C      -86.576    -277.584     -36.328
  O      -85.786    -276.793     -37.203
  O      -83.732    -276.569     -35.782
  O      -83.769    -278.441     -37.536
  H      -83.679    -277.340     -35.188
  H      -87.603    -277.299     -36.419
  H      -86.252    -277.433     -35.320
  H      -86.469    -278.617     -36.586

 6  7  8  9  10  11  12  13  14  15  26  29  33  34 0
 6-311+G(2d,p)
 ****
 36  38  39  40  41 0
 6-311+G(2d,p)
 ****
 1  2  3  4  5  16  17  18  19  20  21  22  23  24  25 0
 3-21G
 ****
 27  28  30  31  32  35  37  42  43  44  45  46  47 0
 3-21G
 ****
 48  49 0
 3-21G
 ****


