%nproc=1
%NoSave
%Mem=1900MB
#P OB98/GEN NMR

erre ene a

0 1
  C      -78.230      71.748    -179.829
  O      -76.962      71.187    -179.563
  H      -78.336      72.668    -179.247
  H      -79.016      71.053    -179.521
  H      -78.341      71.991    -180.889
  P      -76.431      69.991    -180.488
  C      -74.214      71.008    -181.336
  O      -74.829      70.081    -180.451
  C      -74.109      72.380    -180.668
  O      -73.498      72.203    -179.353
  C      -73.237      73.381    -181.456
  O      -73.776      74.695    -181.277
  C      -71.910      73.260    -180.733
  O      -71.081      74.371    -180.963
  C      -72.375      73.101    -179.288
  N      -71.305      72.597    -178.434
  C      -70.911      73.410    -177.376
  O      -71.403      74.514    -177.142
  N      -69.864      72.950    -176.623
  C      -69.122      71.837    -176.888
  O      -68.145      71.513    -176.226
  C      -69.551      71.042    -178.051
  C      -70.611      71.448    -178.754
  O      -77.019      69.913    -181.858
  O      -76.714      68.670    -179.627
  H      -71.552      75.193    -180.736
  H      -76.740      67.886    -180.209
  H      -69.573      73.523    -175.847
  H      -68.974      70.162    -178.297
  H      -70.945      70.899    -179.628
  H      -72.736      74.056    -178.886
  H      -71.376      72.367    -181.074
  H      -73.169      73.146    -182.522
  H      -75.116      72.780    -180.502
  H      -74.831      71.078    -182.239
  H      -73.218      70.645    -181.610
  P      -74.739      75.371    -182.368
  C      -76.016      77.056    -180.908
  O      -75.070      76.893    -181.962
  O      -75.948      74.556    -182.706
  O      -73.812      75.533    -183.665
  H      -74.307      75.231    -184.452
  H      -76.163      78.099    -180.719
  H      -75.649      76.581    -180.022
  H      -76.947      76.611    -181.192

 6  7  8  9  10  11  12  13  14  15  16  26  31  32  33  34  35 0
 6-311+G(2d,p)
 ****
 36  37 0
 6-311+G(2d,p)
 ****
 1  2  3  4  5  17  18  19  20  21  22  23  24  25 0
 3-21G
 ****
 27  28  29  30  38  39  40  41  42  43  44  45 0
 3-21G
 ****


