%nproc=1
%NoSave
%Mem=1900MB
#P OB98/GEN NMR

erre ene a

0 1
  C     -375.753     864.419    -607.250
  O     -375.174     865.277    -608.213
  P     -373.940     864.790    -609.134
  C     -372.553     866.945    -608.712
  O     -373.251     866.146    -609.655
  C     -371.106     867.170    -609.171
  O     -370.415     865.885    -609.139
  C     -370.952     867.745    -610.584
  O     -369.814     868.609    -610.579
  C     -370.702     866.504    -611.423
  O     -370.059     866.819    -612.649
  C     -369.858     865.666    -610.460
  N     -369.862     864.242    -610.805
  C     -369.040     863.826    -611.847
  O     -368.357     864.640    -612.470
  N     -369.003     862.507    -612.170
  C     -369.781     861.661    -611.545
  N     -369.660     860.336    -611.861
  C     -370.746     862.071    -610.505
  C     -370.704     863.373    -610.174
  O     -374.301     863.813    -610.196
  O     -372.861     864.259    -608.076
  H     -369.253     867.334    -612.448
  H     -372.998     863.317    -607.817
  H     -371.399     861.337    -610.044
  H     -371.362     863.746    -609.396
  H     -368.823     866.053    -610.424
  H     -371.658     866.006    -611.648
  H     -371.841     868.313    -610.892
  H     -370.602     867.819    -608.430
  H     -368.876     860.075    -612.439
  H     -372.553     866.434    -607.746
  H     -369.994     859.610    -611.220
  H     -373.074     867.907    -608.570
  P     -370.052     870.203    -610.593
  C     -368.812     870.170    -612.860
  O     -369.035     870.844    -611.664
  O     -369.390     870.619    -609.176
  O     -371.462     870.664    -610.635
  H     -369.788     871.450    -608.877
  H     -368.104     870.740    -613.450
  H     -369.728     870.057    -613.433
  H     -368.381     869.180    -612.666
  H     -376.550     864.929    -606.751
  H     -375.010     864.132    -606.535
  H     -376.137     863.546    -607.735

 3  4  5  6  7  8  9  10  11  12  13  23  27  28  29  30  32 0
 6-311+G(2d,p)
 ****
 34  35 0
 6-311+G(2d,p)
 ****
 1  2  14  15  16  17  18  19  20  21  22  24  25  26 0
 3-21G
 ****
 31  33  36  37  38  39  40  41  42  43  44  45  46 0
 3-21G
 ****


