%nproc=1
%NoSave
%Mem=1900MB
#P OB98/GEN NMR

erre ene a

0 1
  C       26.252     184.423      50.699
  O       24.869     184.406      51.043
  P       24.227     183.494      52.184
  C       23.415     185.364      53.832
  O       23.079     184.338      52.910
  C       22.317     186.431      53.974
  O       22.424     187.383      52.883
  C       20.932     185.795      53.860
  O       20.330     185.194      54.990
  C       20.072     186.860      53.193
  O       19.365     187.664      54.138
  C       21.093     187.708      52.429
  N       18.641     188.911      48.104
  C       18.340     189.264      49.405
  N       17.216     189.988      49.589
  N       19.067     188.921      50.434
  C       20.113     188.124      50.120
  C       20.501     187.691      48.873
  C       19.722     188.125      47.732
  O       19.951     187.851      46.558
  N       21.602     186.876      48.944
  C       21.864     186.797      50.232
  N       20.991     187.544      50.988
  O       25.199     182.779      53.061
  O       23.410     182.379      51.351
  H       19.059     188.467      53.680
  H       23.445     181.555      51.881
  H       18.059     189.223      47.346
  H       22.672     186.221      50.667
  H       20.949     188.776      52.630
  H       19.313     186.397      52.552
  H       16.553     190.181      48.856
  H       21.013     184.984      53.125
  H       16.877     190.062      50.550
  H       22.453     187.011      54.890
  H       24.345     185.817      53.476
  H       23.635     184.931      54.808
  P       19.014     184.283      54.991
  C       20.158     182.139      55.803
  O       19.204     183.142      56.098
  O       19.112     183.460      53.622
  O       17.725     185.034      55.070
  H       18.247     183.071      53.397
  H       19.982     181.278      56.453
  H       21.164     182.525      55.987
  H       20.077     181.817      54.759
  H       26.413     185.121      49.904
  H       26.553     183.446      50.383
  H       26.828     184.715      51.552

 3  4  5  6  7  8  9  10  11  12  23  26  30  31 0
 6-311+G(2d,p)
 ****
 33  35  36  37  38 0
 6-311+G(2d,p)
 ****
 1  2  13  14  15  16  17  18  19  20  21  22  24  25 0
 3-21G
 ****
 27  28  29  32  34  39  40  41  42  43  44  45  46  47  48  49 0
 3-21G
 ****


