%nproc=1
%NoSave
%Mem=1900MB
#P OB98/GEN NMR

erre ene a

0 1
  C       17.056      -0.429     -16.111
  O       16.567      -0.085     -17.391
  H       17.921      -1.086     -16.235
  H       16.290      -0.965     -15.546
  H       17.369       0.461     -15.561
  P       15.399       1.006     -17.502
  C       13.932      -0.536     -16.050
  O       14.017       0.239     -17.240
  C       12.705      -1.442     -16.108
  O       11.507      -0.644     -16.231
  C       12.691      -2.383     -17.306
  O       13.586      -3.463     -17.130
  C       11.222      -2.763     -17.353
  O       10.926      -3.806     -16.416
  C       10.532      -1.444     -16.937
  N        9.989      -0.723     -18.087
  C        8.842       0.028     -17.854
  O        8.295       0.113     -16.756
  N        8.298       0.640     -18.952
  C        8.702       0.458     -20.243
  O        8.042       0.822     -21.211
  C        9.953      -0.293     -20.421
  C       10.524      -0.852     -19.353
  O       15.429       1.863     -18.724
  O       15.577       1.882     -16.172
  H       16.022       2.721     -16.397
  H       11.187      -3.458     -15.538
  H        7.441       1.153     -18.798
  H       10.345      -0.398     -21.425
  H       11.429      -1.440     -19.462
  H        9.716      -1.645     -16.232
  H       10.929      -3.113     -18.344
  H       12.943      -1.826     -18.216
  H       12.645      -2.004     -15.169
  H       13.844       0.142     -15.195
  H       14.847      -1.127     -15.943
  P       14.664      -3.810     -18.261
  C       13.158      -4.801     -20.092
  O       14.134      -5.074     -19.091
  O       16.074      -3.922     -17.785
  O       14.519      -2.612     -19.316
  H       15.407      -2.251     -19.505
  H       12.880      -5.713     -20.578
  H       13.566      -4.123     -20.813
  H       12.295      -4.362     -19.638

 6  7  8  9  10  11  12  13  14  15  16  27  31  32  33  34  35 0
 6-311+G(2d,p)
 ****
 36  37 0
 6-311+G(2d,p)
 ****
 1  2  3  4  5  17  18  19  20  21  22  23  24  25 0
 3-21G
 ****
 26  28  29  30  38  39  40  41  42  43  44  45 0
 3-21G
 ****


