%nproc=1
%NoSave
%Mem=1900MB
#P OB98/GEN NMR

erre ene a

0 1
  C      103.673      82.620      60.098
  O      103.795      83.838      59.399
  P      102.994      85.140      59.883
  C      101.259      84.912      57.996
  O      101.475      84.938      59.402
  C       99.873      85.456      57.667
  O       98.833      84.568      58.156
  C       99.558      86.794      58.321
  O      100.308      87.912      57.904
  C       98.050      86.864      58.144
  O       97.700      87.307      56.834
  C       97.648      85.380      58.340
  N       97.029      85.150      59.644
  C       95.713      84.706      59.623
  O       95.076      84.508      58.588
  N       95.125      84.521      60.844
  C       95.697      84.777      62.056
  O       95.096      84.632      63.113
  C       97.084      85.260      62.014
  C       97.680      85.423      60.830
  O      103.602      86.443      59.487
  O      102.877      84.932      61.468
  H       98.247      86.806      56.198
  H      102.407      84.124      61.738
  H       94.166      84.212      60.852
  H       97.572      85.461      62.960
  H       98.704      85.781      60.774
  H       96.934      85.074      57.565
  H       97.590      87.558      58.854
  H       99.749      86.699      59.398
  H       99.770      85.503      56.580
  H      101.329      83.877      57.645
  H      102.043      85.490      57.495
  P      100.309      89.313      58.681
  C       98.135      90.408      57.789
  O       98.789      89.784      58.873
  O      101.293      90.336      58.219
  O      100.700      88.852      60.170
  H      101.199      89.569      60.603
  H       97.131      90.701      58.108
  H       98.046      89.715      56.947
  H       98.677      91.305      57.479
  H      104.279      81.875      59.626
  H      102.650      82.305      60.090
  H      103.997      82.755      61.109

 3  4  5  6  7  8  9  10  11  12  13  23  28  29  30  31  32 0
 6-311+G(2d,p)
 ****
 33  34 0
 6-311+G(2d,p)
 ****
 1  2  14  15  16  17  18  19  20  21  22  24  25  26  27 0
 3-21G
 ****
 35  36  37  38  39  40  41  42  43  44  45 0
 3-21G
 ****


