%nproc=1
%NoSave
%Mem=1900MB
#P OB98/GEN NMR

erre ene a

0 1
  C      119.492     -22.385      51.755
  O      118.661     -21.652      50.872
  P      117.554     -20.682      51.504
  C      115.633     -22.319      50.894
  O      116.151     -21.001      50.791
  C      114.109     -22.297      51.021
  O      113.723     -21.392      52.090
  C      113.395     -21.827      49.750
  O      112.144     -22.519      49.624
  C      113.080     -20.374      50.037
  O      111.987     -19.908      49.248
  C      112.799     -20.434      51.538
  N      110.601     -15.969      52.412
  C      110.045     -17.143      51.948
  N      108.744     -17.092      51.588
  N      110.702     -18.269      51.852
  C      111.996     -18.168      52.243
  C      112.656     -17.064      52.735
  C      111.919     -15.823      52.824
  O      112.360     -14.743      53.200
  N      113.954     -17.360      53.057
  C      114.098     -18.626      52.724
  N      112.948     -19.150      52.190
  O      117.956     -19.249      50.916
  O      117.524     -20.659      52.995
  H      112.011     -18.933      49.277
  H      118.377     -18.711      51.613
  H      110.055     -15.124      52.458
  H      115.010     -19.200      52.820
  H      111.785     -20.798      51.743
  H      113.953     -19.749      49.816
  H      108.201     -16.242      51.575
  H      113.975     -21.956      48.829
  H      108.325     -17.928      51.202
  H      113.767     -23.297      51.309
  H      116.057     -22.800      51.777
  H      115.929     -22.899      50.014
  P      112.106     -23.714      48.552
  C      110.756     -22.599      46.626
  O      110.760     -23.503      47.712
  O      111.799     -25.003      49.447
  O      113.357     -23.859      47.753
  H      112.137     -25.806      49.010
  H      110.555     -23.153      45.704
  H      111.708     -22.071      46.522
  H      109.962     -21.864      46.779
  H      120.175     -22.983      51.188
  H      118.888     -23.019      52.369
  H      120.041     -21.706      52.374

 3  4  5  6  7  8  9  10  11  12  23  26  30  31 0
 6-311+G(2d,p)
 ****
 33  35  36  37  38 0
 6-311+G(2d,p)
 ****
 1  2  13  14  15  16  17  18  19  20  21  22  24  25 0
 3-21G
 ****
 27  28  29  32  34  39  40  41  42  43  44  45  46  47  48  49 0
 3-21G
 ****


