%nproc=1
%NoSave
%Mem=1900MB
#P OB98/GEN NMR

erre ene a

0 1
  C      -16.582    -101.120     106.714
  O      -16.872    -100.993     105.339
  P      -18.256    -100.366     104.835
  C      -19.307    -102.656     104.300
  O      -19.389    -101.477     105.094
  C      -20.636    -103.421     104.348
  O      -20.504    -104.637     103.546
  C      -21.037    -103.840     105.778
  O      -22.357    -103.450     106.158
  C      -20.772    -105.337     105.776
  O      -21.475    -106.045     106.779
  C      -21.081    -105.705     104.322
  N      -20.550    -107.013     103.950
  C      -21.384    -108.113     104.137
  O      -22.527    -108.052     104.580
  N      -20.838    -109.334     103.851
  C      -19.537    -109.573     103.520
  O      -19.090    -110.702     103.375
  C      -18.694    -108.375     103.376
  C      -19.232    -107.168     103.569
  O      -18.240     -99.819     103.448
  O      -18.594     -99.279     105.962
  H      -21.052    -106.918     106.881
  H      -18.688     -99.637     106.861
  H      -21.430    -110.138     103.984
  H      -17.656    -108.533     103.122
  H      -18.636    -106.267     103.470
  H      -22.156    -105.701     104.128
  H      -19.702    -105.486     105.969
  H      -20.392    -103.358     106.523
  H      -21.401    -102.788     103.893
  H      -18.514    -103.293     104.698
  H      -19.036    -102.395     103.273
  P      -22.785    -102.968     107.624
  C      -24.085    -105.182     108.027
  O      -23.121    -104.265     108.498
  O      -23.824    -101.895     107.662
  O      -21.412    -102.445     108.261
  H      -21.601    -101.745     108.913
  H      -24.549    -105.676     108.885
  H      -23.590    -105.942     107.415
  H      -24.863    -104.687     107.441
  H      -15.614    -101.559     106.835
  H      -17.317    -101.744     107.177
  H      -16.595    -100.153     107.172

 3  4  5  6  7  8  9  10  11  12  13  23  28  29  30  31  32 0
 6-311+G(2d,p)
 ****
 33  34 0
 6-311+G(2d,p)
 ****
 1  2  14  15  16  17  18  19  20  21  22  24  25  26  27 0
 3-21G
 ****
 35  36  37  38  39  40  41  42  43  44  45 0
 3-21G
 ****


