%nproc=1
%NoSave
%Mem=1900MB
#P OB98/GEN NMR

erre ene a

0 1
  C      267.872      69.214     364.073
  O      269.164      69.450     364.599
  H      267.362      70.176     363.957
  H      267.285      68.588     364.754
  H      267.941      68.735     363.092
  P      270.090      68.188     364.941
  C      272.523      68.823     364.314
  O      271.528      68.777     365.335
  C      273.872      69.238     364.897
  O      273.846      70.627     365.285
  C      274.274      68.467     366.153
  O      274.707      67.161     365.817
  C      275.346      69.387     366.714
  O      276.587      69.225     366.014
  C      274.730      70.782     366.421
  N      274.018      71.352     367.560
  C      274.793      71.649     368.688
  O      275.999      71.407     368.689
  N      274.169      72.188     369.789
  C      272.901      72.452     369.756
  N      272.347      72.989     370.874
  C      272.054      72.189     368.572
  C      272.666      71.635     367.527
  O      270.131      67.100     363.912
  O      269.519      67.656     366.339
  H      276.802      68.270     366.054
  H      268.863      66.948     366.194
  H      270.999      72.437     368.584
  H      272.118      71.412     366.618
  H      275.513      71.490     366.124
  H      275.545      69.193     367.770
  H      273.437      68.432     366.861
  H      274.630      69.129     364.110
  H      272.972      73.172     371.653
  H      272.191      69.560     363.575
  H      271.419      73.384     370.906
  H      272.610      67.851     363.818
  P      274.403      65.907     366.767
  C      274.153      64.490     364.632
  O      274.779      64.605     365.902
  O      273.043      65.884     367.377
  O      275.584      65.952     367.846
  H      275.408      66.658     368.521
  H      274.479      63.590     364.154
  H      274.417      65.332     364.026
  H      273.091      64.462     364.759

 6  7  8  9  10  11  12  13  14  15  16  26  30  31  32  33  35 0
 6-311+G(2d,p)
 ****
 37  38 0
 6-311+G(2d,p)
 ****
 1  2  3  4  5  17  18  19  20  21  22  23  24  25 0
 3-21G
 ****
 27  28  29  34  36  39  40  41  42  43  44  45  46 0
 3-21G
 ****


