%nproc=1
%NoSave
%Mem=1900MB
#P OB98/GEN NMR

erre ene a

0 1
  C     -292.864     157.582      98.421
  O     -293.563     157.231      99.603
  P     -294.367     158.330     100.437
  C     -292.599     158.746     102.333
  O     -293.315     159.237     101.222
  C     -291.961     159.928     103.078
  O     -290.978     160.565     102.242
  C     -293.004     160.974     103.464
  O     -293.462     160.759     104.790
  C     -292.246     162.276     103.288
  O     -291.426     162.540     104.443
  C     -291.358     161.957     102.063
  N     -291.950     162.098     100.719
  C     -291.133     162.011      99.593
  O     -289.928     161.786      99.642
  N     -291.758     162.217      98.388
  C     -293.092     162.451      98.210
  O     -293.589     162.867      97.171
  C     -293.930     162.260      99.398
  C     -293.332     162.121     100.580
  O     -295.053     157.471     101.600
  O     -295.366     159.122      99.661
  H     -292.011     162.510     105.222
  H     -295.981     157.273     101.378
  H     -291.148     162.291      97.581
  H     -295.005     162.298      99.278
  H     -293.932     162.018     101.480
  H     -290.442     162.558     102.075
  H     -292.927     163.120     103.200
  H     -293.841     160.957     102.753
  H     -291.452     159.550     103.973
  H     -291.828     158.041     102.004
  H     -293.272     158.196     103.003
  P     -295.026     160.874     105.114
  C     -294.837     163.252     106.051
  O     -295.360     162.439     105.020
  O     -295.474     160.195     106.365
  O     -295.717     160.244     103.814
  H     -295.955     159.310     103.984
  H     -294.983     164.301     105.779
  H     -293.769     163.061     106.186
  H     -295.371     163.053     106.984
  H     -292.394     156.712      98.013
  H     -292.119     158.315      98.651
  H     -293.551     157.984      97.706

 3  4  5  6  7  8  9  10  11  12  13  23  28  29  30  31  32 0
 6-311+G(2d,p)
 ****
 33  34 0
 6-311+G(2d,p)
 ****
 1  2  14  15  16  17  18  19  20  21  22  24  25  26  27 0
 3-21G
 ****
 35  36  37  38  39  40  41  42  43  44  45 0
 3-21G
 ****


