%nproc=1
%NoSave
%Mem=1900MB
#P OB98/GEN NMR

erre ene a

0 1
  C       30.716     612.004     532.709
  O       32.051     611.818     532.287
  P       33.291     612.638     532.867
  C       32.225     615.035     532.733
  O       33.230     614.134     532.274
  C       32.696     616.496     532.608
  O       31.637     617.360     533.092
  C       33.943     616.756     533.479
  O       34.928     617.565     532.862
  C       33.333     617.265     534.787
  O       34.243     617.990     535.595
  C       32.114     618.044     534.283
  N       30.114     620.707     538.125
  C       31.134     621.059     537.262
  N       31.824     622.179     537.576
  N       31.468     620.355     536.204
  C       30.766     619.198     536.089
  C       29.732     618.747     536.869
  C       29.356     619.554     538.022
  O       28.528     619.223     538.864
  N       29.300     617.496     536.480
  C       30.093     617.190     535.483
  N       31.022     618.173     535.217
  O       34.608     611.946     532.889
  O       32.835     612.875     534.400
  H       33.768     618.254     536.400
  H       33.652     612.863     534.953
  H       29.957     621.242     538.965
  H       30.054     616.247     534.927
  H       32.386     619.058     533.989
  H       33.021     616.389     535.376
  H       31.687     622.649     538.458
  H       34.472     615.816     533.681
  H       32.719     622.320     537.117
  H       32.877     616.732     531.556
  H       32.039     614.777     533.772
  H       31.292     614.879     532.174
  P       36.425     617.192     532.470
  C       37.450     617.544     534.800
  O       37.429     617.965     533.442
  O       36.676     617.906     531.054
  O       36.693     615.716     532.342
  H       37.191     617.326     530.470
  H       37.937     618.314     535.394
  H       38.006     616.614     534.883
  H       36.423     617.401     535.174
  H       30.076     611.337     532.171
  H       30.419     613.014     532.519
  H       30.642     611.802     533.757

 3  4  5  6  7  8  9  10  11  12  23  26  30  31 0
 6-311+G(2d,p)
 ****
 33  35  36  37  38 0
 6-311+G(2d,p)
 ****
 1  2  13  14  15  16  17  18  19  20  21  22  24  25 0
 3-21G
 ****
 27  28  29  32  34  39  40  41  42  43  44  45  46  47  48  49 0
 3-21G
 ****


