%nproc=1
%NoSave
%Mem=1900MB
#P OB98/GEN NMR

erre ene a

0 1
  C      218.897     -31.896    -351.573
  O      219.607     -32.178    -350.386
  H      218.834     -32.809    -352.171
  H      219.427     -31.133    -352.152
  H      217.882     -31.554    -351.343
  P      219.657     -31.012    -349.279
  C      219.565     -31.248    -346.667
  O      220.051     -31.739    -347.902
  C      219.885     -32.233    -345.536
  O      219.010     -33.383    -345.662
  C      221.329     -32.739    -345.552
  O      221.762     -32.916    -344.201
  C      221.214     -34.101    -346.220
  O      222.300     -34.958    -345.883
  C      219.836     -34.563    -345.721
  N      219.247     -35.589    -346.581
  C      219.827     -36.859    -346.530
  O      220.795     -37.073    -345.796
  N      219.331     -37.852    -347.340
  C      218.378     -37.577    -348.178
  N      217.945     -38.597    -348.969
  C      217.762     -36.243    -348.296
  C      218.234     -35.308    -347.470
  O      218.104     -30.667    -349.098
  O      220.509     -29.845    -349.651
  H      222.208     -35.795    -346.388
  H      217.538     -31.455    -349.035
  H      216.977     -36.061    -349.016
  H      217.835     -34.298    -347.484
  H      219.910     -34.970    -344.703
  H      221.205     -33.984    -347.313
  H      222.008     -32.066    -346.077
  H      219.646     -31.754    -344.578
  H      218.407     -39.493    -348.868
  H      218.484     -31.092    -346.713
  H      217.249     -38.489    -349.691
  H      220.043     -30.284    -346.472
  P      223.262     -32.523    -343.800
  C      224.504     -31.441    -341.805
  O      223.286     -32.004    -342.282
  O      223.992     -31.665    -344.779
  O      223.981     -33.960    -343.676
  H      224.872     -33.881    -344.070
  H      224.382     -31.138    -340.786
  H      224.762     -30.591    -342.401
  H      225.284     -32.171    -341.869

 6  7  8  9  10  11  12  13  14  15  16  26  30  31  32  33  35 0
 6-311+G(2d,p)
 ****
 37  38 0
 6-311+G(2d,p)
 ****
 1  2  3  4  5  17  18  19  20  21  22  23  24  25 0
 3-21G
 ****
 27  28  29  34  36  39  40  41  42  43  44  45  46 0
 3-21G
 ****


