%nproc=1
%NoSave
%Mem=1900MB
#P OB98/GEN NMR

erre ene a

0 1
  C       -5.368     -18.409      -2.202
  O       -4.181     -17.654      -2.377
  P       -3.880     -17.068      -3.842
  C       -5.183     -14.890      -3.295
  O       -5.033     -16.001      -4.167
  C       -4.748     -13.595      -3.983
  O       -5.595     -13.373      -5.145
  C       -4.844     -12.340      -3.100
  O       -3.760     -11.485      -3.479
  C       -6.180     -11.756      -3.522
  O       -6.358     -10.399      -3.156
  C       -6.140     -12.040      -5.021
  N      -10.105      -8.976      -6.028
  C       -8.911      -8.739      -5.439
  N       -7.900      -9.604      -5.213
  C       -8.211     -10.827      -5.675
  C       -9.392     -11.223      -6.278
  C      -10.372     -10.232      -6.453
  N      -11.593     -10.479      -7.046
  N       -9.358     -12.565      -6.593
  C       -8.175     -12.975      -6.184
  N       -7.440     -11.956      -5.643
  O       -4.236     -18.297      -4.801
  O       -2.480     -16.581      -4.051
  H       -7.194     -10.059      -3.532
  H       -3.607     -18.358      -5.545
  H       -8.745      -7.719      -5.106
  H       -7.810     -13.991      -6.244
  H       -5.468     -11.354      -5.551
  H       -6.985     -12.325      -3.043
  H       -4.771     -12.557      -2.030
  H       -3.722     -13.724      -4.347
  H       -4.556     -15.035      -2.410
  H      -12.295      -9.761      -6.943
  H      -11.858     -11.449      -7.167
  H       -6.224     -14.828      -2.962
  P       -3.151     -10.475      -2.391
  C       -1.129     -12.058      -2.356
  O       -2.093     -11.372      -1.582
  O       -4.363     -10.388      -1.347
  O       -2.681      -9.161      -2.912
  H       -4.676     -11.272      -1.086
  H       -0.420     -12.543      -1.679
  H       -0.585     -11.357      -2.995
  H       -1.616     -12.823      -2.965
  H       -5.438     -18.733      -1.185
  H       -5.346     -19.262      -2.847
  H       -6.216     -17.802      -2.442

 3  4  5  6  7  8  9  10  11  12  22  25  29  30  31  32 0
 6-311+G(2d,p)
 ****
 33  36  37 0
 6-311+G(2d,p)
 ****
 1  2  13  14  15  16  17  18  19  20  21  23  24  26 0
 3-21G
 ****
 27  28  34  35  38  39  40  41  42  43  44  45  46  47  48 0
 3-21G
 ****


