%nproc=1
%NoSave
%Mem=1900MB
#P OB98/GEN NMR

erre ene a

0 1
  C     1486.902    -142.744     456.986
  O     1486.420    -142.704     458.336
  P     1487.513    -142.385     459.474
  C     1488.415    -144.826     459.382
  O     1487.898    -143.770     460.188
  C     1488.736    -146.058     460.253
  O     1489.794    -145.778     461.178
  C     1487.564    -146.536     461.084
  O     1486.621    -147.290     460.320
  C     1488.272    -147.397     462.126
  O     1488.498    -148.728     461.560
  C     1489.596    -146.672     462.322
  N     1491.340    -146.404     467.079
  C     1491.510    -147.385     466.126
  N     1492.266    -148.444     466.464
  N     1490.973    -147.350     464.921
  C     1490.256    -146.236     464.690
  C     1490.008    -145.161     465.555
  C     1490.600    -145.244     466.898
  O     1490.440    -144.426     467.777
  N     1489.267    -144.183     464.969
  C     1489.060    -144.636     463.743
  N     1489.650    -145.861     463.521
  O     1486.649    -141.636     460.612
  O     1488.651    -141.560     459.003
  H     1487.618    -149.168     461.579
  H     1487.200    -141.032     461.121
  H     1491.754    -146.489     467.979
  H     1488.516    -144.109     462.963
  H     1490.460    -147.363     462.340
  H     1487.678    -147.544     463.041
  H     1492.762    -148.511     467.332
  H     1487.075    -145.673     461.597
  H     1492.441    -149.173     465.787
  H     1489.051    -146.861     459.583
  H     1489.360    -144.483     458.887
  H     1487.702    -145.063     458.597
  P     1485.589    -146.468     459.433
  C     1483.872    -146.758     461.344
  O     1484.123    -146.866     459.976
  O     1485.667    -147.216     458.020
  O     1485.864    -145.013     459.311
  H     1485.451    -146.599     457.285
  H     1484.281    -145.827     461.754
  H     1484.315    -147.614     461.885
  H     1482.786    -146.770     461.517
  H     1486.090    -142.963     456.324
  H     1487.650    -143.504     456.897
  H     1487.325    -141.795     456.730

 3  4  5  6  7  8  9  10  11  12  23  26  30  31  33  0
 6-311+G(2d,p)
 ****
 35  36  37  38 0
 6-311+G(2d,p)
 ****
 1  2  13  14  15  16  17  18  19  20  21  22  24  25  27  28  29 0
 3-21G
 ****
 32  34  39  40  41  42  43  44  45  46  47  48  49 0
 3-21G
 ****


