%nproc=1
%NoSave
%Mem=1900MB
#P OB98/GEN NMR

erre ene a

0 1
  C     -124.838    -819.655     117.585
  O     -126.150    -819.145     117.403
  P     -127.373    -820.178     117.551
  C     -127.662    -822.615     116.688
  O     -127.114    -821.316     116.462
  C     -127.036    -823.638     115.747
  O     -125.692    -823.932     116.164
  C     -127.762    -824.972     115.711
  O     -128.935    -824.874     114.921
  C     -126.689    -825.877     115.123
  O     -126.714    -825.843     113.679
  C     -125.383    -825.260     115.669
  N     -124.767    -826.083     116.694
  C     -123.913    -827.095     116.229
  O     -123.754    -827.259     115.022
  N     -123.310    -827.916     117.148
  C     -123.539    -827.746     118.417
  N     -122.906    -828.584     119.278
  C     -124.438    -826.704     118.946
  C     -125.018    -825.917     118.040
  O     -128.607    -819.360     116.948
  O     -127.621    -820.654     118.942
  H     -125.859    -826.226     113.399
  H     -129.453    -819.676     117.339
  H     -124.592    -826.602     120.006
  H     -125.700    -825.130     118.336
  H     -124.658    -825.119     114.862
  H     -126.834    -826.922     115.411
  H     -128.014    -825.300     116.725
  H     -126.987    -823.188     114.738
  H     -122.299    -829.296     118.888
  H     -128.742    -822.584     116.509
  H     -122.999    -828.521     120.285
  H     -127.487    -822.888     117.737
  P     -130.038    -826.018     115.088
  C     -129.887    -828.565     114.886
  O     -129.375    -827.329     114.449
  O     -131.123    -825.610     113.976
  O     -130.653    -826.180     116.441
  H     -131.901    -826.189     114.045
  H     -129.468    -829.367     114.269
  H     -130.982    -828.587     114.790
  H     -129.604    -828.745     115.931
  H     -124.128    -818.865     117.459
  H     -124.650    -820.422     116.863
  H     -124.747    -820.063     118.570

 3  4  5  6  7  8  9  10  11  12  13  21  23  27  28  29  30  32 0
 6-311+G(2d,p)
 ****
 34  35 0
 6-311+G(2d,p)
 ****
 1  2  14  15  16  17  18  19  20  22  24  25  26 0
 3-21G
 ****
 31  33  36  37  38  39  40  41  42  43  44  45  46 0
 3-21G
 ****


