%nproc=1
%NoSave
%Mem=1900MB
#P OB98/GEN NMR

erre ene a

0 1
  C      114.097     550.251    -410.865
  O      115.202     551.129    -410.848
  H      114.133     549.657    -411.784
  H      113.159     550.816    -410.851
  H      114.140     549.577    -410.006
  P      115.283     552.170    -409.631
  C      114.560     554.516    -410.492
  O      114.161     553.288    -409.896
  C      114.611     554.352    -412.010
  O      113.459     553.600    -412.460
  C      114.565     555.665    -412.778
  O      115.817     556.330    -412.807
  C      114.134     555.181    -414.151
  O      115.251     554.730    -414.931
  C      113.184     554.015    -413.818
  N      111.782     554.384    -414.004
  C      111.352     554.461    -415.328
  O      112.076     554.231    -416.290
  N      110.048     554.850    -415.506
  C      109.179     555.208    -414.519
  O      108.041     555.609    -414.759
  C      109.695     555.132    -413.144
  C      110.957     554.731    -412.951
  O      116.661     552.941    -409.898
  O      115.242     551.554    -408.269
  H      117.334     552.642    -409.259
  H      115.759     555.530    -415.164
  H      109.718     554.912    -416.457
  H      109.030     555.411    -412.338
  H      111.367     554.672    -411.948
  H      113.394     553.149    -414.457
  H      113.649     555.978    -414.712
  H      113.779     556.317    -412.370
  H      115.514     553.787    -412.270
  H      115.557     554.794    -410.132
  H      113.852     555.299    -410.208
  P      115.838     557.862    -413.294
  C      116.674     558.293    -415.752
  O      115.660     557.816    -414.887
  O      117.381     558.213    -413.071
  O      114.873     558.725    -412.553
  H      117.946     557.425    -413.133
  H      116.361     558.174    -416.768
  H      117.573     557.737    -415.588
  H      116.854     559.329    -415.554

 6  7  8  9  10  11  12  13  14  15  16  27  31  32  33  34  35 0
 6-311+G(2d,p)
 ****
 36  37 0
 6-311+G(2d,p)
 ****
 1  2  3  4  5  17  18  19  20  21  22  23  24  25 0
 3-21G
 ****
 26  28  29  30  38  39  40  41  42  43  44  45 0
 3-21G
 ****


