%nproc=1
%NoSave
%Mem=1900MB
#P OB98/GEN NMR

erre ene a

0 1
  C     -280.756    -125.303    -106.038
  O     -280.866    -126.032    -104.833
  H     -280.112    -125.857    -106.727
  H     -280.309    -124.324    -105.849
  H     -281.741    -125.181    -106.497
  P     -281.728    -125.363    -103.656
  C     -283.759    -126.849    -104.295
  O     -283.270    -125.536    -104.060
  C     -284.689    -127.261    -103.157
  O     -285.655    -126.213    -102.910
  C     -285.510    -128.510    -103.446
  O     -284.756    -129.697    -103.284
  C     -286.620    -128.370    -102.418
  O     -286.218    -128.874    -101.136
  C     -286.835    -126.839    -102.369
  N     -288.044    -126.433    -103.075
  C     -289.246    -126.857    -102.513
  O     -289.308    -127.535    -101.488
  N     -290.382    -126.507    -103.193
  C     -290.430    -125.824    -104.372
  O     -291.477    -125.608    -104.968
  C     -289.129    -125.387    -104.913
  C     -288.012    -125.713    -104.256
  O     -281.454    -123.799    -103.854
  O     -281.383    -125.825    -102.278
  H     -280.812    -123.485    -103.190
  H     -286.857    -128.516    -100.489
  H     -291.258    -126.817    -102.809
  H     -289.132    -124.836    -105.847
  H     -287.045    -125.422    -104.646
  H     -286.922    -126.501    -101.327
  H     -287.511    -128.923    -102.712
  H     -285.949    -128.451    -104.451
  H     -284.086    -127.396    -102.248
  H     -282.919    -127.550    -104.341
  H     -284.285    -126.866    -105.257
  P     -285.109    -130.959    -104.209
  C     -283.089    -130.835    -105.887
  O     -284.471    -130.660    -105.651
  O     -286.679    -130.758    -104.423
  O     -284.714    -132.268    -103.614
  H     -286.937    -129.822    -104.491
  H     -282.866    -130.585    -106.903
  H     -282.822    -131.855    -105.704
  H     -282.532    -130.198    -105.232

 6  7  8  9  10  11  12  13  14  15  16  27  31  32  33  34  35 0
 6-311+G(2d,p)
 ****
 36  37 0
 6-311+G(2d,p)
 ****
 1  2  3  4  5  17  18  19  20  21  22  23  24  25 0
 3-21G
 ****
 26  28  29  30  38  39  40  41  42  43  44  45 0
 3-21G
 ****


