%nproc=1
%NoSave
%Mem=1900MB
#P OB98/GEN NMR

erre ene a

0 1
  C     -213.421    -106.589     121.063
  O     -213.761    -106.781     122.440
  P     -212.641    -106.651     123.585
  C     -212.439    -104.146     124.083
  O     -212.992    -105.387     124.517
  C     -213.070    -102.924     124.765
  O     -214.516    -102.959     124.661
  C     -212.730    -102.772     126.254
  O     -212.679    -101.359     126.500
  C     -213.938    -103.396     126.927
  O     -214.069    -103.008     128.290
  C     -215.065    -102.934     125.993
  N     -216.259    -103.767     126.108
  C     -216.974    -103.690     127.305
  O     -216.562    -102.989     128.232
  N     -218.111    -104.447     127.449
  C     -218.448    -105.282     126.511
  N     -219.573    -106.023     126.715
  C     -217.677    -105.459     125.266
  C     -216.609    -104.670     125.126
  O     -211.233    -106.687     123.088
  O     -212.931    -107.903     124.547
  H     -214.162    -102.030     128.322
  H     -212.094    -108.197     124.958
  H     -217.979    -106.188     124.526
  H     -215.983    -104.720     124.246
  H     -215.348    -101.894     126.214
  H     -213.851    -104.493     126.900
  H     -211.792    -103.251     126.537
  H     -212.739    -102.035     124.217
  H     -220.061    -105.890     127.595
  H     -212.584    -104.063     122.998
  H     -219.857    -106.779     126.109
  H     -211.358    -104.157     124.263
  P     -211.294    -100.583     126.710
  C     -210.375    -100.187     124.352
  O     -211.100     -99.632     125.436
  O     -210.124    -101.462     127.019
  O     -211.579     -99.549     127.903
  H     -210.727     -99.247     128.275
  H     -210.490     -99.544     123.478
  H     -210.751    -101.189     124.106
  H     -209.314    -100.256     124.609
  H     -214.295    -106.716     120.459
  H     -212.681    -107.306     120.775
  H     -213.033    -105.601     120.926

 3  4  5  6  7  8  9  10  11  12  13  23  27  28  29  30  32 0
 6-311+G(2d,p)
 ****
 34  35 0
 6-311+G(2d,p)
 ****
 1  2  14  15  16  17  18  19  20  21  22  24  25  26 0
 3-21G
 ****
 31  33  36  37  38  39  40  41  42  43  44  45  46 0
 3-21G
 ****


