%nproc=1
%NoSave
%Mem=1900MB
#P OB98/GEN NMR

erre ene a

0 1
  C      110.322    -242.138    -184.892
  O      111.680    -242.456    -185.191
  P      112.611    -243.413    -184.318
  C      114.174    -244.598    -186.071
  O      114.005    -243.596    -185.076
  C      113.768    -244.074    -187.457
  O      114.547    -242.874    -187.748
  C      114.059    -245.083    -188.574
  O      113.023    -245.171    -189.546
  C      115.432    -244.658    -189.063
  O      115.741    -245.137    -190.364
  C      115.373    -243.142    -188.902
  N      119.586    -241.415    -191.210
  C      118.525    -242.118    -191.741
  N      118.593    -242.419    -193.055
  N      117.491    -242.508    -191.043
  C      117.584    -242.210    -189.728
  C      118.591    -241.531    -189.081
  C      119.706    -241.060    -189.874
  O      120.663    -240.415    -189.458
  N      118.331    -241.413    -187.738
  C      117.181    -242.033    -187.571
  N      116.683    -242.531    -188.754
  O      111.964    -244.650    -183.791
  O      113.013    -242.500    -183.050
  H      115.929    -246.093    -190.292
  H      113.113    -243.114    -182.293
  H      120.345    -241.119    -191.802
  H      116.659    -242.140    -186.628
  H      114.912    -242.653    -189.765
  H      116.175    -245.087    -188.381
  H      119.409    -242.258    -193.621
  H      114.119    -246.101    -188.174
  H      117.928    -243.121    -193.385
  H      112.711    -243.795    -187.431
  H      113.516    -245.425    -185.778
  H      115.198    -244.975    -186.074
  P      111.948    -246.335    -189.756
  C      109.976    -245.322    -191.046
  O      111.174    -246.072    -191.132
  O      110.819    -246.063    -188.653
  O      112.490    -247.719    -189.608
  H      110.767    -246.822    -188.042
  H      109.420    -245.442    -191.979
  H      110.211    -244.264    -190.905
  H      109.356    -245.675    -190.218
  H      109.937    -241.477    -185.640
  H      110.269    -241.662    -183.935
  H      109.740    -243.036    -184.877

 3  4  5  6  7  8  9  10  11  12  23  26  30  31 0
 6-311+G(2d,p)
 ****
 33  35  36  37  38 0
 6-311+G(2d,p)
 ****
 1  2  13  14  15  16  17  18  19  20  21  22  24  25 0
 3-21G
 ****
 27  28  29  32  34  39  40  41  42  43  44  45  46  47  48  49 0
 3-21G
 ****


