%nproc=1
%NoSave
%Mem=1900MB
#P OB98/GEN NMR

erre ene a

0 1
  C      110.423     184.948    -298.894
  O      110.844     183.858    -299.688
  H      109.839     185.632    -299.516
  H      111.297     185.486    -298.511
  H      109.803     184.603    -298.060
  P      111.648     182.685    -298.946
  C      114.093     183.561    -298.936
  O      112.888     183.389    -298.198
  C      115.281     183.748    -297.991
  O      115.581     182.469    -297.352
  C      116.569     184.232    -298.685
  O      117.264     185.100    -297.775
  C      117.379     182.946    -298.828
  O      118.771     183.198    -298.984
  C      117.000     182.245    -297.522
  N      120.783     178.932    -297.269
  C      120.786     180.312    -297.142
  N      121.981     180.899    -296.913
  N      119.706     181.051    -297.231
  C      118.575     180.322    -297.433
  C      118.442     178.966    -297.581
  C      119.649     178.157    -297.505
  O      119.710     176.939    -297.629
  N      117.128     178.615    -297.798
  C      116.479     179.764    -297.778
  N      117.310     180.828    -297.558
  O      112.336     181.903    -300.160
  O      110.821     181.780    -298.092
  H      119.201     182.349    -299.232
  H      111.771     181.155    -300.443
  H      121.643     178.417    -297.204
  H      115.409     179.881    -297.918
  H      117.523     182.662    -296.657
  H      117.032     182.378    -299.700
  H      122.841     180.393    -296.780
  H      116.403     184.744    -299.637
  H      121.991     181.903    -296.773
  H      114.987     184.433    -297.188
  H      113.998     184.444    -299.573
  H      114.254     182.676    -299.568
  P      116.989     186.675    -297.877
  C      119.073     187.237    -299.336
  O      117.658     187.204    -299.241
  O      117.955     187.276    -296.749
  O      115.562     187.063    -297.658
  H      117.582     188.116    -296.419
  H      119.357     187.610    -300.298
  H      119.462     186.249    -299.208
  H      119.467     187.877    -298.574

 6  7  8  9  10  11  12  13  14  15  26  29  33  34 0
 6-311+G(2d,p)
 ****
 36  38  39  40  41 0
 6-311+G(2d,p)
 ****
 1  2  3  4  5  16  17  18  19  20  21  22  23  24  25 0
 3-21G
 ****
 27  28  30  31  32  35  37  42  43  44  45  46  47 0
 3-21G
 ****
 48  49 0
 3-21G
 ****


