%nproc=1
%NoSave
%Mem=1900MB
#P OB98/GEN NMR

erre ene a

0 1
  C      -69.751    -301.227     -85.492
  O      -68.392    -300.786     -85.596
  P      -68.107    -299.389     -86.328
  C      -68.657    -300.382     -88.671
  O      -67.725    -299.681     -87.859
  C      -68.169    -300.437     -90.121
  O      -68.159    -299.132     -90.732
  C      -66.748    -300.960     -90.269
  O      -66.710    -302.380     -90.241
  C      -66.387    -300.451     -91.655
  O      -66.961    -301.313     -92.657
  C      -67.071    -299.079     -91.684
  N      -63.682    -295.674     -93.460
  C      -64.363    -296.671     -94.069
  N      -65.233    -297.547     -93.525
  C      -65.388    -297.310     -92.213
  C      -64.762    -296.334     -91.457
  C      -63.869    -295.487     -92.133
  N      -63.181    -294.473     -91.509
  N      -65.162    -296.405     -90.138
  C      -66.028    -297.397     -90.102
  N      -66.190    -297.981     -91.330
  O      -66.716    -298.922     -85.688
  O      -69.175    -298.368     -86.120
  H      -66.811    -300.885     -93.521
  H      -66.698    -297.950     -85.609
  H      -64.184    -296.778     -95.135
  H      -66.559    -297.725     -89.220
  H      -67.501    -298.848     -92.666
  H      -65.309    -300.434     -91.830
  H      -66.085    -300.514     -89.518
  H      -68.858    -301.078     -90.686
  H      -69.636    -299.897     -88.623
  H      -62.580    -293.887     -92.064
  H      -63.335    -294.313     -90.522
  H      -68.794    -301.389     -88.265
  P      -66.409    -303.079     -88.829
  C      -63.970    -303.520     -89.604
  O      -65.169    -304.060     -89.085
  O      -67.656    -304.066     -88.645
  O      -66.272    -302.129     -87.688
  H      -67.854    -304.180     -87.694
  H      -63.161    -304.235     -89.432
  H      -63.716    -302.578     -89.115
  H      -64.075    -303.360     -90.682
  H      -69.783    -302.168     -84.983
  H      -70.166    -301.337     -86.472
  H      -70.319    -300.505     -84.943

 3  4  5  6  7  8  9  10  11  12  22  25  29  30  31  32 0
 6-311+G(2d,p)
 ****
 33  36  37 0
 6-311+G(2d,p)
 ****
 1  2  13  14  15  16  17  18  19  20  21  23  24  26 0
 3-21G
 ****
 27  28  34  35  38  39  40  41  42  43  44  45  46  47  48 0
 3-21G
 ****


