%nproc=1
%NoSave
%Mem=1900MB
#P OB98/GEN NMR

erre ene a

0 1
  C      -83.698     163.519    -637.283
  O      -82.296     163.347    -637.281
  P      -81.543     162.897    -635.928
  C      -79.951     161.486    -637.374
  O      -80.054     162.427    -636.312
  C      -78.488     161.268    -637.779
  O      -78.006     162.372    -638.599
  C      -77.538     161.217    -636.588
  O      -77.636     160.006    -635.861
  C      -76.192     161.436    -637.287
  O      -75.717     160.215    -637.868
  C      -76.590     162.452    -638.396
  N      -76.152     163.814    -638.065
  C      -74.973     164.275    -638.679
  O      -74.316     163.495    -639.384
  N      -74.598     165.560    -638.485
  C      -75.240     166.310    -637.648
  N      -74.836     167.612    -637.526
  C      -76.388     165.830    -636.848
  C      -76.804     164.584    -637.127
  O      -82.308     161.949    -635.061
  O      -81.293     164.289    -635.162
  H      -81.597     164.196    -634.229
  H      -74.982     160.459    -638.467
  H      -76.861     166.469    -636.112
  H      -77.656     164.143    -636.611
  H      -76.121     162.149    -639.353
  H      -75.419     161.796    -636.593
  H      -77.730     162.067    -635.905
  H      -78.419     160.344    -638.365
  H      -74.060     167.908    -638.088
  H      -80.515     161.859    -638.255
  H      -75.453     168.340    -637.162
  H      -80.404     160.537    -637.069
  P      -77.131     160.011    -634.337
  C      -79.386     158.945    -633.585
  O      -77.969     158.883    -633.548
  O      -77.740     161.395    -633.751
  O      -75.654     159.953    -634.174
  H      -77.096     161.798    -633.131
  H      -79.777     157.953    -633.338
  H      -79.749     159.219    -634.586
  H      -79.748     159.667    -632.850
  H      -84.019     163.817    -638.259
  H      -83.966     164.274    -636.574
  H      -84.171     162.597    -637.018

 3  4  5  6  7  8  9  10  11  12  13  24  27  28  29  30  32 0
 6-311+G(2d,p)
 ****
 34  35 0
 6-311+G(2d,p)
 ****
 1  2  14  15  16  17  18  19  20  21  22  23  25  26 0
 3-21G
 ****
 31  33  36  37  38  39  40  41  42  43  44  45  46 0
 3-21G
 ****


