%nproc=1
%NoSave
%Mem=1900MB
#P OB98/GEN NMR

erre ene a

0 1
  C       76.212      23.111      91.160
  O       77.443      23.514      90.586
  P       77.586      24.908      89.798
  C       77.582      23.587      87.574
  O       76.996      24.631      88.334
  C       76.777      23.343      86.294
  O       75.395      23.095      86.657
  C       76.795      24.517      85.305
  O       76.773      23.959      83.985
  C       75.490      25.230      85.604
  O       75.044      26.035      84.523
  C       74.579      24.042      85.935
  N       73.411      24.432      86.717
  C       72.155      24.278      86.127
  O       72.042      23.852      84.979
  N       71.041      24.616      86.856
  C       71.173      25.140      88.036
  N       70.039      25.402      88.742
  C       72.485      25.421      88.651
  C       73.545      25.025      87.953
  O       78.952      25.500      89.817
  O       76.459      25.841      90.439
  H       75.744      26.684      84.316
  H       76.760      26.301      91.263
  H       72.544      25.886      89.625
  H       74.546      25.166      88.335
  H       74.259      23.542      85.014
  H       75.623      25.881      86.476
  H       77.679      25.150      85.414
  H       77.160      22.433      85.816
  H       69.171      25.038      88.361
  H       77.572      22.674      88.176
  H       70.062      25.494      89.751
  H       78.623      23.837      87.345
  P       77.429      24.807      82.790
  C       75.065      25.468      81.945
  O       76.359      25.899      82.311
  O       77.387      23.748      81.582
  O       78.830      25.280      83.003
  H       78.090      23.970      80.940
  H       74.474      26.342      81.656
  H       74.571      24.980      82.789
  H       75.116      24.782      81.096
  H       76.334      22.159      91.634
  H       75.469      23.035      90.394
  H       75.903      23.834      91.886

 3  4  5  6  7  8  9  10  11  12  13  23  27  28  29  30  32 0
 6-311+G(2d,p)
 ****
 34  35 0
 6-311+G(2d,p)
 ****
 1  2  14  15  16  17  18  19  20  21  22  24  25  26 0
 3-21G
 ****
 31  33  36  37  38  39  40  41  42  43  44  45  46 0
 3-21G
 ****


