%nproc=1
%NoSave
%Mem=1900MB
#P OB98/GEN NMR

erre ene a

0 1
  C     -504.167    -350.581    -190.941
  O     -504.468    -349.345    -191.594
  P     -503.262    -348.426    -192.112
  C     -504.400    -347.861    -194.353
  O     -503.847    -347.346    -193.149
  C     -505.782    -348.476    -194.099
  O     -506.668    -347.504    -193.471
  C     -506.466    -348.935    -195.395
  O     -507.280    -350.097    -195.149
  C     -507.397    -347.780    -195.711
  O     -508.452    -348.178    -196.583
  C     -507.833    -347.373    -194.306
  N     -511.707    -344.284    -195.611
  C     -511.530    -345.613    -195.752
  N     -510.484    -346.372    -195.361
  C     -509.558    -345.620    -194.750
  C     -509.598    -344.250    -194.523
  C     -510.734    -343.568    -194.989
  N     -510.894    -342.207    -194.872
  N     -508.460    -343.826    -193.869
  C     -507.721    -344.910    -193.751
  N     -508.354    -346.024    -194.236
  O     -502.044    -349.152    -192.575
  O     -502.936    -347.521    -190.826
  H     -508.055    -348.710    -197.298
  H     -501.963    -347.438    -190.733
  H     -512.339    -346.141    -196.254
  H     -506.720    -344.942    -193.338
  H     -508.603    -348.045    -193.911
  H     -506.834    -346.975    -196.202
  H     -505.783    -349.153    -196.218
  H     -505.676    -349.313    -193.402
  H     -503.727    -348.611    -194.776
  H     -511.689    -341.790    -195.339
  H     -510.119    -341.649    -194.547
  H     -504.452    -347.055    -195.093
  P     -507.122    -351.303    -196.207
  C     -506.635    -353.389    -194.709
  O     -507.576    -352.625    -195.428
  O     -505.781    -351.349    -196.864
  O     -508.324    -351.006    -197.224
  H     -509.187    -350.861    -196.802
  H     -507.161    -354.161    -194.148
  H     -506.089    -352.761    -193.997
  H     -505.932    -353.866    -195.393
  H     -505.078    -351.067    -190.661
  H     -503.581    -350.389    -190.066
  H     -503.616    -351.212    -191.607

 3  4  5  6  7  8  9  10  11  12  22  25  29  30  31  32 0
 6-311+G(2d,p)
 ****
 33  36  37 0
 6-311+G(2d,p)
 ****
 1  2  13  14  15  16  17  18  19  20  21  23  24  26 0
 3-21G
 ****
 27  28  34  35  38  39  40  41  42  43  44  45  46  47  48 0
 3-21G
 ****


