%nproc=1
%NoSave
%Mem=1900MB
#P OB98/GEN NMR

erre ene a

0 1
  C       61.356    -911.782    -408.029
  O       60.429    -910.773    -408.461
  P       60.976    -909.273    -408.625
  C       60.379    -908.399    -406.239
  O       60.134    -908.326    -407.647
  C       59.655    -907.266    -405.508
  O       60.124    -905.973    -405.913
  C       58.150    -907.240    -405.741
  O       57.478    -908.167    -404.905
  C       57.809    -905.823    -405.338
  O       57.724    -905.722    -403.900
  C       59.026    -905.037    -405.857
  N       56.893    -901.167    -408.438
  C       56.879    -901.489    -407.124
  N       57.450    -902.543    -406.509
  C       58.113    -903.305    -407.408
  C       58.215    -903.096    -408.777
  C       57.567    -901.966    -409.290
  N       57.595    -901.633    -410.633
  N       58.976    -904.081    -409.359
  C       59.338    -904.869    -408.365
  N       58.831    -904.438    -407.167
  O       60.441    -908.855    -410.074
  O       62.459    -909.165    -408.525
  H       58.379    -906.337    -403.532
  H       61.101    -908.263    -410.508
  H       56.316    -900.816    -406.479
  H       59.948    -905.759    -408.455
  H       59.318    -904.235    -405.169
  H       56.847    -905.487    -405.739
  H       57.914    -907.403    -406.801
  H       59.856    -907.371    -404.436
  H       61.444    -908.357    -406.041
  H       57.118    -900.788    -410.927
  H       58.118    -902.217    -411.267
  H       60.042    -909.382    -405.876
  P       57.376    -909.690    -405.417
  C       54.801    -909.352    -405.694
  O       55.858    -910.133    -405.137
  O       58.217    -910.498    -404.328
  O       57.877    -909.907    -406.804
  H       58.622    -911.295    -404.733
  H       53.887    -909.954    -405.683
  H       55.022    -909.097    -406.737
  H       54.651    -908.457    -405.106
  H       60.853    -912.724    -407.965
  H       61.746    -911.520    -407.068
  H       62.159    -911.853    -408.732

 3  4  5  6  7  8  9  10  11  12  22  25  29  30  31  32 0
 6-311+G(2d,p)
 ****
 33  36  37 0
 6-311+G(2d,p)
 ****
 1  2  13  14  15  16  17  18  19  20  21  23  24  26 0
 3-21G
 ****
 27  28  34  35  38  39  40  41  42  43  44  45  46  47  48 0
 3-21G
 ****


