%nproc=1
%NoSave
%Mem=1900MB
#P OB98/GEN NMR

erre ene a

0 1
  C       47.408     274.574    -157.583
  O       47.823     274.289    -156.262
  H       46.750     273.772    -157.928
  H       48.286     274.612    -158.236
  H       46.867     275.521    -157.631
  P       48.457     275.494    -155.416
  C       47.507     277.559    -154.157
  O       47.254     276.505    -155.075
  C       46.253     278.413    -153.970
  O       45.786     278.847    -155.283
  C       45.092     277.682    -153.277
  O       44.398     278.606    -152.429
  C       44.181     277.329    -154.440
  O       42.828     277.128    -154.031
  C       44.377     278.546    -155.339
  N       40.358     277.198    -158.029
  C       40.467     277.574    -156.701
  N       39.343     277.529    -155.954
  N       41.589     277.960    -156.150
  C       42.632     277.980    -157.015
  C       42.655     277.630    -158.343
  C       41.411     277.184    -158.937
  O       41.254     276.822    -160.098
  N       43.929     277.726    -158.855
  C       44.675     278.117    -157.833
  N       43.930     278.282    -156.695
  O       49.313     276.284    -156.518
  O       49.295     275.085    -154.250
  H       42.344     276.725    -154.776
  H       50.240     275.978    -156.497
  H       39.474     276.891    -158.397
  H       45.742     278.272    -157.860
  H       43.822     279.425    -154.983
  H       44.531     276.412    -154.934
  H       38.436     277.272    -156.315
  H       45.399     276.802    -152.697
  H       39.397     277.840    -154.993
  H       46.529     279.314    -153.412
  H       48.314     278.189    -154.545
  H       47.825     277.130    -153.201
  P       44.309     278.276    -150.862
  C       45.907     278.380    -148.808
  O       45.767     278.448    -150.220
  O       44.088     276.690    -150.843
  O       43.211     278.991    -150.158
  H       43.514     276.445    -150.095
  H       46.936     278.513    -148.545
  H       45.571     277.425    -148.462
  H       45.320     279.151    -148.354

 6  7  8  9  10  11  12  13  14  15  26  29  33  34 0
 6-311+G(2d,p)
 ****
 36  38  39  40  41 0
 6-311+G(2d,p)
 ****
 1  2  3  4  5  16  17  18  19  20  21  22  23  24  25 0
 3-21G
 ****
 27  28  30  31  32  35  37  42  43  44  45  46  47 0
 3-21G
 ****
 48  49 0
 3-21G
 ****


