%nproc=1
%NoSave
%Mem=1900MB
#P OB98/GEN NMR

erre ene a

0 1
  C     -337.478     -54.219    -410.681
  O     -337.477     -52.950    -411.299
  H     -336.844     -54.894    -411.259
  H     -338.492     -54.625    -410.655
  H     -337.079     -54.146    -409.662
  P     -338.379     -51.815    -410.606
  C     -340.308     -52.315    -412.275
  O     -339.908     -52.211    -410.914
  C     -341.709     -52.910    -412.377
  O     -341.672     -54.343    -412.184
  C     -342.705     -52.360    -411.359
  O     -343.254     -51.129    -411.793
  C     -343.734     -53.481    -411.310
  O     -344.656     -53.402    -412.416
  C     -342.845     -54.734    -411.427
  N     -344.185     -57.948    -407.773
  C     -344.799     -57.660    -408.973
  N     -345.976     -58.286    -409.216
  N     -344.314     -56.831    -409.862
  C     -343.153     -56.256    -409.470
  C     -342.440     -56.470    -408.308
  C     -342.974     -57.420    -407.351
  O     -342.442     -57.768    -406.298
  N     -341.294     -55.717    -408.281
  C     -341.337     -55.015    -409.398
  N     -342.456     -55.296    -410.145
  O     -338.143     -50.529    -411.534
  O     -338.060     -51.530    -409.178
  H     -344.154     -53.239    -413.237
  H     -338.218     -49.725    -410.986
  H     -344.600     -58.611    -407.137
  H     -340.588     -54.300    -409.711
  H     -343.343     -55.536    -411.990
  H     -344.337     -53.441    -410.399
  H     -346.547     -58.659    -408.463
  H     -342.235     -52.257    -410.372
  H     -346.447     -58.064    -410.085
  H     -342.069     -52.733    -413.399
  H     -339.601     -52.967    -412.804
  H     -340.290     -51.319    -412.736
  P     -343.972     -50.202    -410.699
  C     -346.404     -51.035    -411.141
  O     -345.303     -50.990    -410.239
  O     -344.551     -48.984    -411.561
  O     -343.084     -49.741    -409.583
  H     -344.767     -48.234    -410.975
  H     -347.206     -51.588    -410.698
  H     -346.101     -51.512    -412.050
  H     -346.732     -50.039    -411.353

 6  7  8  9  10  11  12  13  14  15  26  29  33  34 0
 6-311+G(2d,p)
 ****
 36  38  39  40  41 0
 6-311+G(2d,p)
 ****
 1  2  3  4  5  16  17  18  19  20  21  22  23  24  25 0
 3-21G
 ****
 27  28  30  31  32  35  37  42  43  44  45  46  47 0
 3-21G
 ****
 48  49 0
 3-21G
 ****


