%nproc=1
%NoSave
%Mem=1900MB
#P OB98/GEN NMR

erre ene a

0 1
  C     -161.993    -136.252    -331.318
  O     -161.242    -136.239    -330.100
  P     -160.940    -134.809    -329.436
  C     -163.171    -134.011    -328.313
  O     -161.937    -134.697    -328.183
  C     -163.313    -132.973    -327.199
  O     -164.497    -132.164    -327.403
  C     -163.464    -133.571    -325.808
  O     -162.230    -134.075    -325.324
  C     -164.018    -132.374    -325.041
  O     -162.952    -131.483    -324.677
  C     -164.924    -131.711    -326.097
  N     -166.342    -131.969    -325.877
  C     -167.093    -130.893    -325.415
  O     -166.607    -129.787    -325.180
  N     -168.425    -131.133    -325.219
  C     -169.058    -132.328    -325.402
  O     -170.260    -132.479    -325.217
  C     -168.206    -133.441    -325.841
  C     -166.906    -133.218    -326.057
  O     -161.567    -133.822    -330.529
  O     -159.496    -134.592    -329.141
  H     -162.366    -134.184    -330.954
  H     -162.607    -131.111    -325.513
  H     -168.991    -130.361    -324.898
  H     -168.672    -134.411    -325.973
  H     -166.261    -134.028    -326.379
  H     -164.776    -130.622    -326.092
  H     -164.529    -132.669    -324.120
  H     -164.212    -134.374    -325.830
  H     -162.437    -132.314    -327.236
  H     -164.003    -134.722    -328.250
  H     -163.212    -133.541    -329.299
  P     -162.257    -135.539    -324.665
  C     -162.987    -137.278    -326.475
  O     -161.940    -136.577    -325.848
  O     -163.823    -135.730    -324.391
  O     -161.395    -135.666    -323.450
  H     -164.374    -135.446    -325.136
  H     -162.634    -137.644    -327.445
  H     -163.859    -136.639    -326.637
  H     -163.271    -138.138    -325.861
  H     -162.120    -137.262    -331.648
  H     -161.468    -135.696    -332.067
  H     -162.952    -135.808    -331.150

 3  4  5  6  7  8  9  10  11  12  13  24  28  29  30  31  32 0
 6-311+G(2d,p)
 ****
 33  34 0
 6-311+G(2d,p)
 ****
 1  2  14  15  16  17  18  19  20  21  22  23  25  26  27 0
 3-21G
 ****
 35  36  37  38  39  40  41  42  43  44  45 0
 3-21G
 ****


