%nproc=1
%NoSave
%Mem=1900MB
#P OB98/GEN NMR

erre ene a

0 1
  C     -340.232     910.983     377.411
  O     -339.546     909.987     378.147
  H     -340.186     910.725     376.350
  H     -339.746     911.952     377.555
  H     -341.277     911.033     377.723
  P     -339.637     910.082     379.746
  C     -337.169     910.897     380.130
  O     -338.138     909.872     380.282
  C     -335.829     910.464     380.733
  O     -335.966     910.405     382.175
  C     -335.358     909.088     380.251
  O     -333.930     909.112     380.138
  C     -335.762     908.160     381.388
  O     -334.984     906.966     381.406
  C     -335.573     909.084     382.608
  N     -336.346     908.642     383.767
  C     -335.672     908.597     384.992
  O     -334.485     908.912     385.059
  N     -336.351     908.166     386.102
  C     -337.570     907.745     385.993
  N     -338.176     907.305     387.124
  C     -338.304     907.727     384.714
  C     -337.643     908.193     383.653
  O     -340.367     908.707     380.115
  O     -340.331     911.303     380.253
  H     -335.219     906.449     382.210
  H     -340.013     907.938     379.634
  H     -339.316     907.354     384.667
  H     -338.108     908.225     382.674
  H     -334.523     909.127     382.899
  H     -336.812     907.875     381.285
  H     -335.798     908.795     379.294
  H     -335.086     911.235     380.518
  H     -337.624     907.309     387.981
  H     -337.507     911.813     380.623
  H     -339.101     906.900     387.147
  H     -337.057     911.104     379.064
  P     -333.254     909.433     378.731
  C     -332.971     906.928     378.131
  O     -332.340     908.193     378.283
  O     -332.613     910.782     378.605
  O     -334.497     909.326     377.709
  H     -334.410     910.050     377.063
  H     -332.245     906.201     377.831
  H     -333.735     906.998     377.385
  H     -333.408     906.633     379.062

 6  7  8  9  10  11  12  13  14  15  16  26  30  31  32  33  35 0
 6-311+G(2d,p)
 ****
 37  38 0
 6-311+G(2d,p)
 ****
 1  2  3  4  5  17  18  19  20  21  22  23  24  25 0
 3-21G
 ****
 27  28  29  34  36  39  40  41  42  43  44  45  46 0
 3-21G
 ****


