%nproc=1
%NoSave
%Mem=1900MB
#P OB98/GEN NMR

erre ene a

0 1
  C      609.610     161.056     326.619
  O      608.453     161.790     326.942
  H      610.221     161.650     325.938
  H      609.325     160.125     326.119
  H      610.202     160.826     327.509
  P      607.620     161.384     328.250
  C      607.669     163.529     329.686
  O      606.896     162.703     328.817
  C      607.506     165.012     329.333
  O      608.162     165.286     328.073
  C      606.038     165.421     329.169
  O      605.398     165.803     330.378
  C      606.149     166.606     328.214
  O      606.352     167.835     328.923
  C      607.385     166.265     327.368
  N      607.003     167.256     322.363
  C      607.238     168.135     323.413
  N      607.338     169.440     323.074
  N      607.335     167.761     324.654
  C      607.103     166.440     324.851
  C      606.849     165.480     323.901
  C      606.817     165.888     322.507
  O      606.627     165.151     321.551
  N      606.627     164.251     324.468
  C      606.672     164.486     325.769
  N      607.036     165.782     326.042
  O      608.761     161.116     329.346
  O      606.739     160.179     328.103
  H      607.213     167.779     329.384
  H      608.460     160.432     329.971
  H      606.963     167.600     321.422
  H      606.494     163.751     326.545
  H      608.026     167.145     327.227
  H      605.229     166.723     327.633
  H      607.189     169.795     322.144
  H      605.474     164.632     328.675
  H      607.323     170.131     323.823
  H      608.012     165.616     330.098
  H      608.707     163.229     329.560
  H      607.389     163.350     330.722
  P      603.808     165.727     330.521
  C      603.479     163.281     331.424
  O      603.458     164.672     331.666
  O      603.363     164.981     329.185
  O      603.112     167.039     330.692
  H      603.052     165.627     328.510
  H      603.215     162.759     332.320
  H      604.461     162.987     331.116
  H      602.777     163.043     330.652

 6  7  8  9  10  11  12  13  14  15  26  29  33  34 0
 6-311+G(2d,p)
 ****
 36  38  39  40  41 0
 6-311+G(2d,p)
 ****
 1  2  3  4  5  16  17  18  19  20  21  22  23  24  25 0
 3-21G
 ****
 27  28  30  31  32  35  37  42  43  44  45  46  47 0
 3-21G
 ****
 48  49 0
 3-21G
 ****


