%nproc=1
%NoSave
%Mem=1900MB
#P OB98/GEN NMR

erre ene a

0 1
  C     -257.366     330.903     163.613
  O     -257.009     331.447     164.889
  P     -256.480     330.407     165.994
  C     -254.793     332.089     167.032
  O     -255.918     331.244     167.238
  C     -254.898     333.337     167.904
  O     -255.782     334.321     167.324
  C     -255.471     333.058     169.290
  O     -254.511     332.431     170.123
  C     -255.865     334.468     169.727
  O     -254.716     335.191     170.185
  C     -256.375     335.078     168.410
  N     -260.806     336.002     170.800
  C     -259.516     336.126     171.200
  N     -258.394     335.857     170.503
  C     -258.691     335.428     169.265
  C     -259.951     335.252     168.717
  C     -261.045     335.560     169.539
  N     -262.355     335.416     169.139
  N     -259.859     334.794     167.417
  C     -258.563     334.672     167.196
  N     -257.819     335.051     168.280
  O     -255.166     329.793     165.318
  O     -257.472     329.345     166.338
  H     -255.031     336.045     170.546
  H     -255.328     328.870     165.047
  H     -259.375     336.489     172.213
  H     -258.122     334.310     166.274
  H     -256.060     336.122     168.289
  H     -256.605     334.473     170.532
  H     -256.367     332.426     169.211
  H     -253.897     333.776     167.998
  H     -254.724     332.379     165.978
  H     -263.079     335.585     169.822
  H     -262.549     335.004     168.237
  H     -253.880     331.523     167.259
  P     -254.878     330.996     170.740
  C     -252.314     331.084     170.730
  O     -253.462     330.420     171.228
  O     -255.175     330.142     169.425
  O     -255.960     331.010     171.765
  H     -254.494     330.289     168.736
  H     -251.423     330.617     171.162
  H     -252.331     332.136     171.012
  H     -252.269     330.988     169.642
  H     -257.700     331.691     162.970
  H     -258.151     330.187     163.738
  H     -256.513     330.425     163.178

 3  4  5  6  7  8  9  10  11  12  22  25  29  30  31  32 0
 6-311+G(2d,p)
 ****
 33  36  37 0
 6-311+G(2d,p)
 ****
 1  2  13  14  15  16  17  18  19  20  21  23  24  26 0
 3-21G
 ****
 27  28  34  35  38  39  40  41  42  43  44  45  46  47  48 0
 3-21G
 ****


