%nproc=1
%NoSave
%Mem=1900MB
#P OB98/GEN NMR

erre ene a

0 1
  C       91.315      -6.514     -42.316
  O       91.965      -6.515     -43.570
  H       91.015      -7.529     -42.044
  H       92.009      -6.138     -41.559
  H       90.437      -5.862     -42.345
  P       91.123      -7.069     -44.819
  C       88.917      -6.290     -45.958
  O       89.760      -6.220     -44.817
  C       87.476      -6.026     -45.536
  O       87.015      -7.078     -44.657
  C       87.291      -4.727     -44.760
  O       87.192      -3.596     -45.607
  C       85.975      -5.004     -44.054
  O       84.885      -4.852     -44.980
  C       86.139      -6.481     -43.662
  N       85.445      -8.544     -39.029
  C       84.699      -8.582     -40.154
  N       84.964      -8.024     -41.353
  C       86.141      -7.382     -41.329
  C       87.014      -7.264     -40.259
  C       86.624      -7.880     -39.058
  N       87.366      -7.817     -37.901
  N       88.115      -6.509     -40.612
  C       87.917      -6.195     -41.876
  N       86.722      -6.672     -42.344
  O       90.643      -8.520     -44.343
  O       91.836      -7.090     -46.129
  H       84.061      -4.865     -44.456
  H       90.314      -9.036     -45.103
  H       83.763      -9.129     -40.080
  H       88.598      -5.619     -42.489
  H       85.191      -7.030     -43.680
  H       85.789      -4.320     -43.222
  H       88.077      -4.593     -44.008
  H       86.846      -6.041     -46.433
  H       88.994      -7.289     -46.398
  H       86.934      -8.161     -37.058
  H       88.167      -7.204     -37.871
  H       89.237      -5.546     -46.693
  P       87.527      -2.160     -44.968
  C       89.768      -1.038     -44.285
  O       89.033      -2.249     -44.420
  O       86.648      -2.149     -43.633
  O       87.224      -0.998     -45.856
  H       86.352      -1.245     -43.418
  H       90.747      -1.255     -43.912
  H       89.262      -0.388     -43.602
  H       89.848      -0.561     -45.239

 6  7  8  9  10  11  12  13  14  15  25  28  32  33  34  35 0
 6-311+G(2d,p)
 ****
 36  39  40 0
 6-311+G(2d,p)
 ****
 1  2  3  4  5  16  17  18  19  20  21  22  23  24 0
 3-21G
 ****
 26  27  29  30  31  37  38  41  42  43  44  45  46  47 0
 3-21G
 ****
 48 0
 3-21G
 ****


