%nproc=1
%NoSave
%Mem=1900MB
#P OB98/GEN NMR

erre ene a

0 1
  C     -130.966     144.054     379.789
  O     -129.598     144.022     379.378
  P     -129.243     144.247     377.829
  C     -130.388     142.144     376.872
  O     -130.392     143.563     376.935
  C     -131.088     141.654     375.591
  O     -130.937     140.211     375.450
  C     -132.595     141.951     375.594
  O     -133.062     142.213     374.262
  C     -133.197     140.634     376.044
  O     -134.572     140.527     375.672
  C     -132.260     139.642     375.356
  N     -133.161     134.664     374.524
  C     -133.140     135.729     373.686
  N     -132.868     137.020     373.975
  C     -132.585     137.167     375.279
  C     -132.553     136.175     376.254
  C     -132.869     134.871     375.832
  N     -132.922     133.795     376.689
  N     -132.231     136.706     377.486
  C     -132.114     137.999     377.271
  N     -132.284     138.323     375.950
  O     -127.847     143.905     377.430
  O     -129.534     145.811     377.623
  H     -134.643     140.814     374.747
  H     -128.828     146.196     377.067
  H     -133.375     135.510     372.648
  H     -131.917     138.743     378.034
  H     -132.500     139.531     374.293
  H     -133.131     140.550     377.140
  H     -132.892     142.784     376.244
  H     -130.608     142.117     374.722
  H     -130.889     141.735     377.751
  H     -133.265     132.924     376.319
  H     -132.855     133.962     377.682
  H     -129.354     141.784     376.923
  P     -132.648     143.643     373.639
  C     -134.788     144.911     374.443
  O     -133.393     144.741     374.537
  O     -132.867     143.733     372.162
  O     -131.110     143.754     374.067
  H     -130.933     143.588     375.010
  H     -135.118     145.607     375.216
  H     -135.312     143.959     374.587
  H     -135.053     145.330     373.464
  H     -131.025     143.888     380.844
  H     -131.511     143.289     379.276
  H     -131.387     145.009     379.554

 3  4  5  6  7  8  9  10  11  12  22  25  29  30  31  32 0
 6-311+G(2d,p)
 ****
 33  36  37 0
 6-311+G(2d,p)
 ****
 1  2  13  14  15  16  17  18  19  20  21  23  24  26 0
 3-21G
 ****
 27  28  34  35  38  39  40  41  42  43  44  45  46  47  48 0
 3-21G
 ****


