%nproc=1
%NoSave
%Mem=1900MB
#P OB98/GEN NMR

erre ene a

0 1
  C      327.528     -69.504     138.411
  O      326.330     -69.945     139.020
  H      327.654     -68.438     138.621
  H      327.492     -69.647     137.329
  H      328.380     -70.046     138.830
  P      325.776     -71.401     138.630
  C      327.290     -72.561     140.365
  O      326.969     -72.420     138.984
  C      327.547     -74.023     140.726
  O      326.401     -74.839     140.404
  C      328.701     -74.658     139.966
  O      329.972     -74.134     140.276
  C      328.435     -76.141     140.176
  O      328.927     -76.610     141.431
  C      326.887     -76.179     140.165
  N      326.356     -76.733     138.924
  C      326.186     -78.111     138.896
  O      326.478     -78.852     139.834
  N      325.694     -78.627     137.728
  C      325.408     -77.918     136.599
  O      324.988     -78.443     135.574
  C      325.645     -76.468     136.676
  C      326.099     -75.948     137.818
  O      325.253     -71.541     137.230
  O      324.687     -71.712     139.758
  H      328.594     -77.521     141.542
  H      324.104     -72.465     139.494
  H      325.549     -79.624     137.692
  H      325.440     -75.876     135.794
  H      326.280     -74.879     137.901
  H      326.518     -76.795     140.995
  H      328.895     -76.755     139.399
  H      328.554     -74.466     138.895
  H      327.702     -74.083     141.808
  H      326.437     -72.192     140.945
  H      328.169     -71.953     140.600
  P      331.213     -74.167     139.278
  C      331.767     -71.692     138.641
  O      331.109     -72.904     138.295
  O      331.561     -75.492     138.685
  O      332.425     -73.734     140.252
  H      333.222     -74.214     139.950
  H      331.593     -70.962     137.879
  H      332.818     -71.870     138.731
  H      331.385     -71.332     139.574

 6  7  8  9  10  11  12  13  14  15  16  26  31  32  33  34  35 0
 6-311+G(2d,p)
 ****
 36  37 0
 6-311+G(2d,p)
 ****
 1  2  3  4  5  17  18  19  20  21  22  23  24  25 0
 3-21G
 ****
 27  28  29  30  38  39  40  41  42  43  44  45 0
 3-21G
 ****


