%nproc=1
%NoSave
%Mem=1900MB
#P OB98/GEN NMR

erre ene a

0 1
  C     -224.341       8.121    -154.661
  O     -223.000       8.567    -154.693
  H     -224.421       7.137    -155.133
  H     -224.658       8.038    -153.619
  H     -224.991       8.835    -155.174
  P     -222.350       8.783    -156.144
  C     -222.077       6.259    -156.680
  O     -221.431       7.496    -156.418
  C     -221.048       5.136    -156.753
  O     -221.684       3.905    -157.152
  C     -219.925       5.363    -157.760
  O     -218.924       6.228    -157.248
  C     -219.404       3.944    -157.927
  O     -218.556       3.603    -156.815
  C     -220.699       3.119    -157.873
  N     -219.626       1.030    -162.420
  C     -218.903       1.140    -161.284
  N     -219.263       1.692    -160.106
  C     -220.526       2.145    -160.165
  C     -221.395       2.085    -161.241
  C     -220.898       1.501    -162.418
  N     -221.627       1.455    -163.596
  N     -222.607       2.670    -160.927
  C     -222.461       3.093    -159.688
  N     -221.227       2.793    -159.184
  O     -221.292       9.961    -155.886
  O     -223.315       9.133    -157.226
  H     -218.983       3.964    -156.016
  H     -221.692      10.811    -156.144
  H     -217.897       0.736    -161.327
  H     -223.217       3.622    -159.123
  H     -220.568       2.180    -157.321
  H     -218.815       3.808    -158.838
  H     -220.313       5.718    -158.722
  H     -220.642       4.985    -155.744
  H     -222.612       6.321    -157.633
  H     -221.047       1.463    -164.431
  H     -222.446       2.050    -163.604
  H     -222.798       6.063    -155.880
  P     -218.450       7.451    -158.169
  C     -216.384       5.967    -158.639
  O     -216.867       7.277    -158.379
  O     -218.568       8.707    -157.185
  O     -219.248       7.660    -159.411
  H     -219.148       9.386    -157.585
  H     -215.321       5.996    -158.757
  H     -216.833       5.593    -159.535
  H     -216.634       5.325    -157.820

 6  7  8  9  10  11  12  13  14  15  25  28  32  33  34  35 0
 6-311+G(2d,p)
 ****
 36  39  40 0
 6-311+G(2d,p)
 ****
 1  2  3  4  5  16  17  18  19  20  21  22  23  24 0
 3-21G
 ****
 26  27  29  30  31  37  38  41  42  43  44  45  46  47  48 0
 3-21G
 ****


