%nproc=1
%NoSave
%Mem=1900MB
#P OB98/GEN NMR

erre ene a

0 1
  C      223.299    -143.135    -703.592
  O      222.763    -142.444    -702.478
  P      222.992    -140.857    -702.398
  C      222.316    -140.754    -699.882
  O      223.305    -140.495    -700.867
  C      222.955    -140.744    -698.491
  O      223.812    -141.900    -698.316
  C      223.843    -139.533    -698.234
  O      223.073    -138.382    -697.918
  C      224.704    -140.025    -697.076
  O      224.033    -139.860    -695.824
  C      224.880    -141.519    -697.423
  N      226.187    -141.828    -697.974
  C      226.756    -143.036    -697.559
  O      226.207    -143.792    -696.760
  N      227.994    -143.324    -698.069
  C      228.738    -142.507    -698.875
  O      229.868    -142.789    -699.256
  C      228.104    -141.230    -699.261
  C      226.878    -140.950    -698.791
  O      221.531    -140.242    -702.648
  O      223.996    -140.330    -703.371
  H      223.108    -140.154    -695.954
  H      221.610    -139.408    -703.154
  H      228.413    -144.195    -697.800
  H      228.665    -140.565    -699.913
  H      226.406    -140.011    -699.048
  H      224.743    -142.128    -696.514
  H      225.651    -139.473    -697.010
  H      224.485    -139.347    -699.111
  H      222.155    -140.802    -697.736
  H      221.858    -141.732    -700.076
  H      221.531    -139.994    -699.948
  P      223.864    -136.981    -697.816
  C      222.283    -136.280    -695.857
  O      223.605    -136.477    -696.317
  O      222.938    -136.054    -698.736
  O      225.282    -137.083    -698.254
  H      221.997    -136.311    -698.694
  H      221.590    -137.018    -696.266
  H      221.948    -135.282    -696.118
  H      222.283    -136.373    -694.763
  H      223.069    -144.177    -703.510
  H      224.361    -143.005    -703.615
  H      222.872    -142.746    -704.492

 3  4  5  6  7  8  9  10  11  12  13  23  28  29  30  31  32 0
 6-311+G(2d,p)
 ****
 33  34 0
 6-311+G(2d,p)
 ****
 1  2  14  15  16  17  18  19  20  21  22  24  25  26 0
 3-21G
 ****
 27  35  36  37  38  39  40  41  42  43  44  45 0
 3-21G
 ****


