%nproc=1
%NoSave
%Mem=1900MB
#P OB98/GEN NMR

erre ene a

0 1
  C     -192.546    -191.103     -73.086
  O     -192.281    -189.918     -73.851
  P     -192.065    -189.925     -75.442
  C     -193.778    -187.999     -75.688
  O     -193.373    -189.292     -76.125
  C     -194.201    -187.131     -76.875
  O     -193.036    -186.632     -77.574
  C     -195.000    -187.849     -77.952
  O     -196.330    -188.120     -77.550
  C     -194.885    -186.866     -79.116
  O     -195.873    -185.831     -79.025
  C     -193.479    -186.270     -78.903
  N     -192.522    -186.701     -79.907
  C     -192.238    -185.794     -80.933
  O     -192.844    -184.725     -81.005
  N     -191.284    -186.130     -81.861
  C     -190.742    -187.307     -81.831
  N     -189.791    -187.579     -82.764
  C     -191.114    -188.342     -80.848
  C     -191.999    -187.974     -79.923
  O     -191.684    -191.258     -75.996
  O     -190.923    -188.838     -75.717
  H     -190.452    -189.061     -76.541
  H     -196.723    -186.269     -78.823
  H     -190.668    -189.325     -80.884
  H     -192.318    -188.669     -79.154
  H     -193.529    -185.175     -78.900
  H     -195.019    -187.356     -80.084
  H     -194.492    -188.785     -78.217
  H     -194.769    -186.275     -76.487
  H     -189.551    -186.844     -83.417
  H     -192.929    -187.521     -75.185
  H     -189.291    -188.455     -82.814
  H     -194.595    -188.103     -74.967
  P     -196.735    -189.661     -77.369
  C     -196.392    -189.809     -74.802
  O     -195.963    -190.222     -76.084
  O     -196.010    -190.389     -78.599
  O     -198.207    -189.920     -77.380
  H     -196.591    -191.083     -78.959
  H     -196.140    -190.588     -74.078
  H     -197.471    -189.632     -74.773
  H     -195.867    -188.890     -74.526
  H     -192.652    -190.844     -72.053
  H     -191.734    -191.790     -73.200
  H     -193.450    -191.558     -73.434

 3  4  5  6  7  8  9  10  11  12  13  24  27  28  29  30  32 0
 6-311+G(2d,p)
 ****
 34  35 0
 6-311+G(2d,p)
 ****
 1  2  14  15  16  17  18  19  20  21  22  23  25  26 0
 3-21G
 ****
 31  33  36  37  38  39  40  41  42  43  44  45  46 0
 3-21G
 ****


