%nproc=1
%NoSave
%Mem=1900MB
#P OB98/GEN NMR

erre ene a

0 1
  C      -10.006     284.396    -112.324
  O      -10.117     283.250    -111.502
  H       -9.234     285.049    -111.912
  H      -10.957     284.936    -112.331
  H       -9.727     284.118    -113.343
  P      -10.950     282.011    -112.094
  C      -13.089     282.678    -110.784
  O      -12.496     282.440    -112.052
  C      -13.612     281.372    -110.192
  O      -14.046     281.575    -108.830
  C      -14.803     280.776    -110.938
  O      -14.386     280.014    -112.062
  C      -15.390     279.879    -109.860
  O      -14.597     278.679    -109.743
  C      -15.218     280.742    -108.602
  N      -19.799     280.979    -106.434
  C      -18.957     279.900    -106.609
  N      -19.403     278.710    -106.149
  N      -17.785     279.970    -107.188
  C      -17.481     281.220    -107.620
  C      -18.235     282.368    -107.510
  C      -19.518     282.275    -106.855
  O      -20.297     283.205    -106.665
  N      -17.594     283.444    -108.070
  C      -16.469     282.944    -108.536
  N      -16.352     281.598    -108.291
  O      -10.826     280.915    -110.931
  O      -10.456     281.479    -113.397
  H      -14.673     278.203    -110.591
  H      -10.159     280.251    -111.193
  H      -20.694     280.867    -105.991
  H      -15.705     283.513    -109.048
  H      -15.022     280.138    -107.706
  H      -16.412     279.567    -110.082
  H      -20.302     278.578    -105.714
  H      -15.533     281.545    -111.215
  H      -18.799     277.903    -106.264
  H      -12.776     280.659    -110.164
  H      -13.917     283.383    -110.903
  H      -12.338     283.115    -110.119
  P      -15.379     279.910    -113.319
  C      -16.122     277.525    -112.621
  O      -16.523     278.855    -112.925
  O      -14.498     279.122    -114.398
  O      -15.861     281.212    -113.856
  H      -14.271     279.717    -115.139
  H      -16.984     276.939    -112.379
  H      -15.452     277.536    -111.787
  H      -15.628     277.099    -113.469

 6  7  8  9  10  11  12  13  14  15  26  29  33  34 0
 6-311+G(2d,p)
 ****
 36  38  39  40  41 0
 6-311+G(2d,p)
 ****
 1  2  3  4  5  16  17  18  19  20  21  22  23  24  25 0
 3-21G
 ****
 27  28  30  31  32  35  37  42  43  44  45  46  47 0
 3-21G
 ****
 48  49 0
 3-21G
 ****


