%nproc=1
%NoSave
%Mem=1900MB
#P OB98/GEN NMR

erre ene a

0 1
  C     -189.237      45.725      31.286
  O     -188.648      44.646      30.550
  P     -189.531      43.353      30.209
  C     -190.119      41.100      31.301
  O     -189.253      42.226      31.318
  C     -190.484      40.619      32.713
  O     -189.341      39.990      33.353
  C     -190.978      41.732      33.650
  O     -191.990      41.151      34.486
  C     -189.738      42.054      34.453
  O     -190.032      42.745      35.659
  C     -189.140      40.648      34.618
  N     -187.737      40.680      34.994
  C     -187.435      41.018      36.315
  O     -188.329      41.370      37.084
  N     -186.123      40.967      36.723
  C     -185.185      40.752      35.851
  N     -183.903      40.700      36.292
  C     -185.455      40.584      34.408
  C     -186.738      40.530      34.056
  O     -189.460      42.881      28.796
  O     -191.022      43.841      30.573
  H     -189.206      42.854      36.176
  H     -191.647      43.427      29.949
  H     -184.644      40.499      33.700
  H     -187.040      40.393      33.031
  H     -189.696      40.084      35.383
  H     -189.067      42.687      33.858
  H     -191.407      42.592      33.122
  H     -191.264      39.850      32.610
  H     -183.725      40.850      37.282
  H     -189.637      40.283      30.755
  H     -183.120      40.488      35.676
  H     -191.020      41.355      30.723
  P     -193.533      41.413      34.138
  C     -195.315      43.221      34.713
  O     -194.017      42.707      34.943
  O     -194.260      40.232      34.955
  O     -193.902      41.326      32.686
  H     -195.114      40.027      34.526
  H     -195.568      43.910      35.522
  H     -196.056      42.419      34.690
  H     -195.339      43.764      33.761
  H     -188.512      46.500      31.424
  H     -189.564      45.369      32.240
  H     -190.074      46.112      30.743

 3  4  5  6  7  8  9  10  11  12  13  23  27  28  29  30  32 0
 6-311+G(2d,p)
 ****
 34  35 0
 6-311+G(2d,p)
 ****
 1  2  14  15  16  17  18  19  20  21  22  24  25  26 0
 3-21G
 ****
 31  33  36  37  38  39  40  41  42  43  44  45  46 0
 3-21G
 ****


