%nproc=1
%NoSave
%Mem=1900MB
#P OB98/GEN NMR

erre ene a

0 1
  C      458.138       3.441     174.430
  O      459.199       2.544     174.182
  H      458.239       3.827     175.451
  H      457.179       2.927     174.347
  H      458.169       4.285     173.734
  P      459.383       1.960     172.702
  C      457.846      -0.103     172.850
  O      458.019       1.207     172.321
  C      457.169      -0.995     171.810
  O      456.212      -0.226     171.050
  C      458.130      -1.582     170.783
  O      458.886      -2.644     171.328
  C      457.162      -1.980     169.681
  O      456.545      -3.239     169.962
  C      456.122      -0.835     169.742
  N      456.328       0.151     168.682
  C      455.802      -0.168     167.434
  O      455.182      -1.205     167.202
  N      456.063       0.732     166.433
  C      456.896       1.807     166.528
  O      457.297       2.433     165.552
  C      457.370       2.131     167.882
  C      457.080       1.290     168.881
  O      460.627       1.172     172.468
  O      459.337       3.266     171.775
  H      460.247       3.505     171.510
  H      455.755      -3.284     169.387
  H      455.721       0.484     165.514
  H      457.976       3.017     168.011
  H      457.445       1.489     169.886
  H      455.103      -1.241     169.649
  H      457.667      -2.057     168.718
  H      458.792      -0.796     170.409
  H      456.627      -1.792     172.339
  H      457.213      -0.040     173.742
  H      458.823      -0.507     173.131
  P      460.442      -2.797     170.970
  C      460.110      -4.993     169.677
  O      460.567      -3.641     169.615
  O      461.309      -3.268     172.089
  O      460.874      -1.321     170.504
  H      461.684      -1.065     170.983
  H      460.240      -5.458     168.722
  H      459.073      -5.007     169.942
  H      460.674      -5.527     170.413

 6  7  8  9  10  11  12  13  14  15  16  27  31  32  33  34  35 0
 6-311+G(2d,p)
 ****
 36  37 0
 6-311+G(2d,p)
 ****
 1  2  3  4  5  17  18  19  20  21  22  23  24  25 0
 3-21G
 ****
 26  28  29  30  38  39  40  41  42  43  44  45 0
 3-21G
 ****


