%nproc=1
%NoSave
%Mem=1900MB
#P OB98/GEN NMR

erre ene a

0 1
  C     -190.849     120.391     177.996
  O     -191.011     121.781     177.797
  H     -191.216     120.106     178.986
  H     -191.427     119.854     177.239
  H     -189.795     120.116     177.898
  P     -190.265     122.753     178.834
  C     -191.635     121.592     180.719
  O     -190.357     122.003     180.251
  C     -191.872     122.172     182.110
  O     -193.231     121.912     182.530
  C     -190.981     121.566     183.189
  O     -189.691     122.154     183.225
  C     -191.777     121.907     184.437
  O     -191.593     123.294     184.768
  C     -193.217     121.659     183.963
  N     -196.571     118.781     186.552
  C     -196.398     120.119     186.479
  N     -195.495     120.807     185.750
  C     -194.725     119.973     185.034
  C     -194.790     118.588     185.000
  C     -195.765     117.983     185.811
  N     -195.926     116.621     185.914
  N     -193.819     118.078     184.160
  C     -193.196     119.136     183.683
  N     -193.686     120.303     184.206
  O     -191.282     123.977     179.009
  O     -188.890     123.185     178.451
  H     -190.657     123.404     185.030
  H     -190.837     124.730     179.442
  H     -197.070     120.714     187.091
  H     -192.380     119.111     182.971
  H     -193.939     122.340     184.428
  H     -191.467     121.324     185.308
  H     -190.917     120.475     183.093
  H     -191.742     123.260     182.056
  H     -191.663     120.499     180.766
  H     -196.549     116.281     186.630
  H     -195.240     116.017     185.483
  H     -192.406     121.944     180.027
  P     -188.473     121.239     183.732
  C     -189.040     121.801     186.205
  O     -188.838     120.786     185.230
  O     -187.295     122.299     183.946
  O     -188.087     120.141     182.795
  H     -186.426     121.894     183.762
  H     -189.274     121.350     187.147
  H     -189.849     122.432     185.901
  H     -188.149     122.386     186.301

 6  7  8  9  10  11  12  13  14  15  25  28  32  33  34  35 0
 6-311+G(2d,p)
 ****
 36  39  40 0
 6-311+G(2d,p)
 ****
 1  2  3  4  5  16  17  18  19  20  21  22  23  24 0
 3-21G
 ****
 26  27  29  30  31  37  38  41  42  43  44  45  46  47 0
 3-21G
 ****
 48 0
 3-21G
 ****


