%nproc=1
%NoSave
%Mem=1900MB
#P OB98/GEN NMR

erre ene a

0 1
  C      -83.430    -170.768    -138.566
  O      -84.491    -171.100    -137.695
  H      -83.364    -171.535    -139.342
  H      -82.483    -170.744    -138.021
  H      -83.612    -169.802    -139.044
  P      -84.797    -170.126    -136.456
  C      -83.527    -171.658    -134.796
  O      -83.581    -170.393    -135.438
  C      -82.089    -172.166    -134.753
  O      -81.499    -172.184    -136.071
  C      -81.134    -171.320    -133.919
  O      -81.317    -171.458    -132.522
  C      -79.805    -171.887    -134.388
  O      -79.585    -173.170    -133.777
  C      -80.062    -172.023    -135.907
  N      -79.584    -170.869    -136.665
  C      -78.200    -170.773    -136.855
  O      -77.442    -171.622    -136.391
  N      -77.700    -169.692    -137.542
  C      -78.508    -168.776    -137.978
  N      -77.957    -167.725    -138.645
  C      -79.969    -168.826    -137.783
  C      -80.435    -169.888    -137.129
  O      -86.165    -170.230    -135.864
  O      -84.446    -168.663    -137.000
  H      -79.563    -173.024    -132.813
  H      -84.629    -168.019    -136.273
  H      -80.595    -168.023    -138.140
  H      -81.497    -169.993    -136.939
  H      -79.586    -172.929    -136.303
  H      -78.953    -171.256    -134.131
  H      -81.185    -170.265    -134.217
  H      -82.119    -173.206    -134.400
  H      -76.953    -167.717    -138.764
  H      -84.171    -172.348    -135.349
  H      -78.501    -166.929    -138.953
  H      -83.894    -171.573    -133.769
  P      -81.902    -170.183    -131.734
  C      -79.746    -170.276    -130.264
  O      -80.650    -169.486    -131.018
  O      -82.722    -170.845    -130.534
  O      -82.736    -169.254    -132.559
  H      -83.675    -170.881    -130.744
  H      -78.977    -169.651    -129.860
  H      -79.307    -171.018    -130.898
  H      -80.272    -170.755    -129.465

 6  7  8  9  10  11  12  13  14  15  16  26  30  31  32  33  35 0
 6-311+G(2d,p)
 ****
 37  38 0
 6-311+G(2d,p)
 ****
 1  2  3  4  5  17  18  19  20  21  22  23  24  25 0
 3-21G
 ****
 27  28  29  34  36  39  40  41  42  43  44  45  46 0
 3-21G
 ****


