%nproc=1
%NoSave
%Mem=1900MB
#P OB98/GEN NMR

erre ene a

0 1
  C      -59.166     531.797     740.345
  O      -60.431     531.251     740.032
  H      -59.275     532.462     741.207
  H      -58.782     532.374     739.500
  H      -58.460     530.999     740.605
  P      -60.483     530.223     738.802
  C      -62.175     528.423     737.979
  O      -61.916     529.493     738.878
  C      -63.161     527.449     738.620
  O      -62.490     526.659     739.623
  C      -64.316     528.124     739.344
  O      -65.324     528.583     738.451
  C      -64.781     527.008     740.261
  O      -65.665     526.101     739.584
  C      -63.471     526.302     740.628
  N      -64.714     526.455     745.573
  C      -65.353     525.954     744.500
  N      -64.951     525.942     743.210
  C      -63.735     526.499     743.095
  C      -62.956     527.044     744.102
  C      -63.490     527.017     745.403
  N      -62.844     527.548     746.486
  N      -61.784     527.560     743.580
  C      -61.839     527.315     742.287
  N      -63.003     526.672     741.948
  O      -59.449     529.079     739.241
  O      -60.140     530.802     737.473
  H      -66.376     526.651     739.193
  H      -58.596     529.220     738.786
  H      -66.330     525.518     744.698
  H      -61.081     527.588     741.562
  H      -63.568     525.210     740.613
  H      -65.319     527.409     741.122
  H      -63.944     528.960     739.960
  H      -63.538     526.764     737.845
  H      -61.247     527.899     737.757
  H      -62.583     528.834     737.049
  H      -63.318     527.546     747.377
  H      -61.989     528.063     746.347
  P      -66.576     529.358     739.080
  C      -68.466     530.894     738.133
  O      -67.224     530.245     737.906
  O      -65.898     530.451     740.046
  O      -67.547     528.493     739.814
  H      -66.467     530.582     740.836
  H      -68.750     531.437     737.256
  H      -68.369     531.571     738.956
  H      -69.214     530.163     738.358

 6  7  8  9  10  11  12  13  14  15  25  28  32  33  34  35 0
 6-311+G(2d,p)
 ****
 36  37  40 0
 6-311+G(2d,p)
 ****
 1  2  3  4  5  16  17  18  19  20  21  22  23  24 0
 3-21G
 ****
 26  27  29  30  31  38  39 41  42  43  44  45  46  47  48 0
 3-21G
 ****


