%nproc=1
%NoSave
%Mem=1900MB
#P OB98/GEN NMR

erre ene a

0 1
  C     -298.204     642.443    -388.369
  O     -297.740     641.160    -388.765
  P     -298.295     640.428    -390.084
  C     -296.157     639.367    -391.071
  O     -297.335     639.164    -390.309
  C     -295.546     638.012    -391.473
  O     -294.869     637.451    -390.325
  C     -296.568     636.979    -391.964
  O     -295.937     636.202    -392.993
  C     -296.815     636.138    -390.734
  O     -297.325     634.853    -391.034
  C     -295.416     636.133    -390.096
  N     -295.445     635.815    -388.668
  C     -295.979     634.578    -388.305
  O     -296.423     633.795    -389.147
  N     -295.989     634.231    -386.970
  C     -295.581     635.094    -386.085
  N     -295.558     634.699    -384.779
  C     -295.113     636.455    -386.431
  C     -295.052     636.729    -387.720
  O     -298.458     641.316    -391.267
  O     -299.652     639.730    -389.603
  H     -297.191     634.275    -390.247
  H     -300.433     640.336    -389.631
  H     -294.816     637.139    -385.644
  H     -294.695     637.685    -388.072
  H     -294.762     635.417    -390.625
  H     -297.546     636.639    -390.078
  H     -297.473     637.444    -392.368
  H     -294.792     638.198    -392.243
  H     -295.729     633.708    -384.602
  H     -295.440     639.918    -390.459
  H     -294.967     635.164    -384.098
  H     -296.387     639.973    -391.962
  P     -296.709     636.018    -394.389
  C     -294.550     635.698    -395.813
  O     -295.772     635.138    -395.354
  O     -296.562     637.482    -395.039
  O     -298.150     635.631    -394.318
  H     -297.297     637.625    -395.662
  H     -294.039     634.964    -396.440
  H     -293.895     635.932    -394.959
  H     -294.738     636.598    -396.391
  H     -297.706     642.740    -387.470
  H     -299.259     642.403    -388.196
  H     -297.996     643.152    -389.143

 3  4  5  6  7  8  9  10  11  12  13  23  27  28  29  30  32 0
 6-311+G(2d,p)
 ****
 34  35 0
 6-311+G(2d,p)
 ****
 1  2  14  15  16  17  18  19  20  21  22  24  25  26 0
 3-21G
 ****
 31  33  36  37  38  39  40  41  42  43  44  45  46 0
 3-21G
 ****


