%nproc=1
%NoSave
%Mem=1900MB
#P OB98/GEN NMR

erre ene a

0 1
  C      153.508      38.608      36.607
  O      154.850      38.919      36.292
  H      152.872      39.440      36.294
  H      153.406      38.474      37.686
  H      153.186      37.702      36.085
  P      155.908      37.713      36.360
  C      156.835      38.758      38.550
  O      156.359      37.590      37.897
  C      156.945      38.517      40.052
  O      155.726      37.931      40.558
  C      158.075      37.574      40.456
  O      159.318      38.257      40.547
  C      157.594      37.131      41.827
  O      157.845      38.177      42.792
  C      156.082      36.980      41.601
  N      154.531      32.422      43.193
  C      154.938      33.524      43.921
  N      154.937      33.388      45.265
  N      155.314      34.654      43.384
  C      155.287      34.638      42.030
  C      154.911      33.607      41.199
  C      154.481      32.368      41.806
  O      154.102      31.366      41.206
  N      155.015      33.960      39.878
  C      155.474      35.195      39.912
  N      155.659      35.652      41.194
  O      157.196      38.333      35.634
  O      155.473      36.446      35.705
  H      157.360      38.966      42.489
  H      157.248      37.977      34.727
  H      154.260      31.572      43.657
  H      155.682      35.802      39.041
  H      155.502      37.239      42.494
  H      158.110      36.238      42.187
  H      154.680      32.539      45.743
  H      158.137      36.705      39.788
  H      155.227      34.185      45.819
  H      157.064      39.493      40.539
  H      156.137      39.580      38.362
  H      157.816      39.018      38.140
  P      160.638      37.500      40.039
  C      160.809      36.477      42.417
  O      160.863      36.243      41.016
  O      161.805      38.512      40.457
  O      160.677      37.196      38.581
  H      162.209      38.903      39.658
  H      160.975      35.558      42.939
  H      159.847      36.866      42.677
  H      161.565      37.184      42.690

 6  7  8  9  10  11  12  13  14  15  26  29  33  34 0
 6-311+G(2d,p)
 ****
 36  38  39  40  41 0
 6-311+G(2d,p)
 ****
 1  2  3  4  5  16  17  18  19  20  21  22  23  24  25 0
 3-21G
 ****
 27  28  30  31  32  35  37  42  43  44  45  46  47 0
 3-21G
 ****
 48  49 0
 3-21G
 ****


