%nproc=1
%NoSave
%Mem=1900MB
#P OB98/GEN NMR

erre ene a

0 1
  C      -67.576     312.073     -95.395
  O      -68.719     312.007     -96.253
  P      -70.136     312.399     -95.608
  C      -70.723     310.166     -94.432
  O      -70.344     311.525     -94.276
  C      -71.280     309.586     -93.129
  O      -72.482     310.299     -92.716
  C      -71.657     308.105     -93.226
  O      -71.402     307.505     -91.948
  C      -73.155     308.146     -93.453
  O      -73.770     306.901     -93.131
  C      -73.536     309.326     -92.561
  N      -78.502     309.421     -91.393
  C      -77.458     308.754     -90.853
  N      -76.164     308.766     -91.240
  C      -75.991     309.607     -92.275
  C      -76.958     310.344     -92.934
  C      -78.273     310.228     -92.455
  N      -79.342     310.884     -93.021
  N      -76.398     311.053     -93.980
  C      -75.117     310.740     -93.951
  N      -74.819     309.897     -92.919
  O      -71.190     311.773     -96.638
  O      -70.339     313.868     -95.445
  H      -74.741     307.027     -93.149
  H      -71.619     312.484     -97.147
  H      -77.694     308.122     -90.000
  H      -74.373     311.090     -94.650
  H      -73.591     309.046     -91.501
  H      -73.365     308.370     -94.508
  H      -71.129     307.549     -94.007
  H      -70.531     309.724     -92.340
  H      -69.860     309.571     -94.747
  H      -80.259     310.724     -92.634
  H      -79.192     311.452     -93.841
  H      -71.451     310.089     -95.246
  P      -70.088     306.598     -91.833
  C      -70.978     304.420     -92.924
  O      -70.152     305.559     -93.051
  O      -70.367     305.690     -90.545
  O      -68.818     307.373     -91.707
  H      -69.527     305.406     -90.144
  H      -71.479     304.239     -93.878
  H      -71.736     304.541     -92.147
  H      -70.355     303.553     -92.682
  H      -66.702     311.790     -95.943
  H      -67.711     311.406     -94.569
  H      -67.460     313.073     -95.031

 3  4  5  6  7  8  9  10  11  12  22  25  29  30  31  32 0
 6-311+G(2d,p)
 ****
 33  36  37 0
 6-311+G(2d,p)
 ****
 1  2  13  14  15  16  17  18  19  20  21  23  24  26 0
 3-21G
 ****
 27  28  34  35  38  39  40  41  42  43  44  45  46  47  48 0
 3-21G
 ****


