%nproc=1
%NoSave
%Mem=1900MB
#P OB98/GEN NMR

erre ene a

0 1
  C      149.638     193.329      48.622
  O      148.874     192.830      49.707
  P      147.531     192.024      49.342
  C      146.211     194.268      49.550
  O      146.495     193.109      48.781
  C      145.092     195.067      48.880
  O      145.515     195.536      47.585
  C      143.811     194.275      48.649
  O      143.036     194.227      49.831
  C      143.164     195.068      47.517
  O      142.480     196.227      48.030
  C      144.381     195.476      46.676
  N      143.214     194.258      41.910
  C      142.593     195.135      42.781
  N      141.534     195.817      42.291
  N      142.976     195.326      44.015
  C      144.040     194.567      44.371
  C      144.729     193.653      43.605
  C      144.326     193.491      42.226
  O      144.900     192.803      41.388
  N      145.736     193.059      44.317
  C      145.675     193.635      45.502
  N      144.678     194.572      45.579
  O      146.948     191.629      50.775
  O      147.724     190.839      48.450
  H      141.967     196.641      47.313
  H      147.180     190.708      51.002
  H      142.883     194.165      40.966
  H      146.341     193.425      46.325
  H      144.265     196.476      46.240
  H      142.418     194.481      46.976
  H      141.168     195.704      41.362
  H      144.047     193.262      48.298
  H      141.067     196.461      42.919
  H      144.889     195.949      49.504
  H      147.110     194.889      49.610
  H      145.918     193.968      50.560
  P      141.760     193.254      49.841
  C      140.020     195.016      49.057
  O      140.722     193.823      48.762
  O      141.066     193.573      51.249
  O      142.085     191.805      49.714
  H      140.682     192.755      51.618
  H      139.799     195.533      48.122
  H      140.599     195.681      49.704
  H      139.079     194.764      49.553
  H      150.499     193.841      48.998
  H      149.042     194.007      48.048
  H      149.950     192.515      48.001

 3  4  5  6  7  8  9  10  11  12  23  26  30  31 0
 6-311+G(2d,p)
 ****
 33  35  36  37  38 0
 6-311+G(2d,p)
 ****
 1  2  13  14  15  16  17  18  19  20  21  22  24  25 0
 3-21G
 ****
 27  28  29  32  34  39  40  41  42  43  44  45  46  47  48  49 0
 3-21G
 ****


