%nproc=1
%NoSave
%Mem=1900MB
#P OB98/GEN NMR

erre ene a

0 1
  C       17.072    -120.209    -631.804
  O       18.353    -120.456    -632.346
  H       16.314    -120.255    -632.593
  H       16.850    -120.974    -631.054
  H       17.049    -119.227    -631.321
  P       18.851    -119.438    -633.485
  C       19.042    -121.192    -635.380
  O       18.363    -120.041    -634.890
  C       18.266    -121.817    -636.530
  O       19.141    -122.752    -637.216
  C       16.996    -122.582    -636.090
  O       15.866    -122.167    -636.866
  C       17.310    -124.033    -636.421
  O       16.160    -124.761    -636.841
  C       18.347    -123.909    -637.535
  N       19.055    -128.254    -640.107
  C       18.414    -127.114    -640.439
  N       18.344    -125.954    -639.752
  C       19.060    -126.035    -638.616
  C       19.785    -127.122    -638.148
  C       19.755    -128.283    -638.938
  N       20.360    -129.457    -638.576
  N       20.386    -126.827    -636.935
  C       19.992    -125.605    -636.656
  N       19.176    -125.092    -637.630
  O       20.438    -119.657    -633.500
  O       18.498    -118.010    -633.235
  H       16.481    -125.576    -637.281
  H       20.874    -118.814    -633.274
  H       17.881    -127.137    -641.388
  H       20.221    -125.065    -635.739
  H       17.874    -123.735    -638.509
  H       17.729    -124.520    -635.535
  H       16.776    -122.455    -635.024
  H       18.002    -121.029    -637.249
  H       19.139    -121.930    -634.566
  H       20.189    -130.276    -639.141
  H       20.789    -129.514    -637.663
  H       20.045    -120.902    -635.705
  P       14.735    -121.337    -636.074
  C       13.301    -123.376    -635.316
  O       14.138    -122.290    -634.924
  O       13.543    -121.234    -637.147
  O       15.174    -119.989    -635.624
  H       13.310    -120.297    -637.297
  H       12.984    -123.914    -634.447
  H       13.847    -124.032    -635.962
  H       12.444    -122.997    -635.833

 6  7  8  9  10  11  12  13  14  15  25  28  32  33  34  35 0
 6-311+G(2d,p)
 ****
 36  39  40 0
 6-311+G(2d,p)
 ****
 1  2  3  4  5  16  17  18  19  20  21  22  23  24 0
 3-21G
 ****
 26  27  29  30  31  37  38  41  42  43  44  45  46  47  48 0
 3-21G
 ****


