%nproc=1
%NoSave
%Mem=1900MB
#P OB98/GEN NMR

erre ene a

0 1
  C       50.276      18.758     -84.358
  O       48.945      19.185     -84.153
  H       50.748      19.427     -85.082
  H       50.290      17.743     -84.761
  H       50.844      18.795     -83.425
  P       48.062      18.454     -83.033
  C       47.486      16.725     -84.854
  O       47.881      16.932     -83.504
  C       47.459      15.231     -85.163
  O       48.778      14.663     -85.008
  C       46.549      14.426     -84.242
  O       45.191      14.614     -84.585
  C       47.089      13.024     -84.473
  O       46.585      12.472     -85.700
  C       48.609      13.291     -84.583
  N       49.322      13.035     -83.331
  C       49.696      11.716     -83.097
  O       49.453      10.797     -83.876
  N       50.327      11.478     -81.904
  C       50.528      12.394     -80.913
  O       50.894      12.094     -79.780
  C       50.180      13.783     -81.246
  C       49.588      14.035     -82.416
  O       46.801      19.150     -82.646
  O       49.065      18.325     -81.789
  H       48.862      19.024     -81.138
  H       46.906      11.551     -85.742
  H       50.561      10.517     -81.703
  H       50.385      14.551     -80.510
  H       49.295      15.047     -82.670
  H       49.054      12.660     -85.364
  H       46.810      12.334     -83.675
  H       46.729      14.706     -83.197
  H       47.158      15.105     -86.212
  H       48.213      17.219     -85.509
  H       46.501      17.173     -85.012
  P       44.028      14.403     -83.507
  C       43.925      11.877     -83.929
  O       44.122      12.898     -82.962
  O       42.665      14.813     -83.958
  O       44.497      15.272     -82.246
  H       43.775      15.880     -81.991
  H       44.009      10.919     -83.459
  H       44.666      11.964     -84.696
  H       42.951      11.978     -84.361

 6  7  8  9  10  11  12  13  14  15  16  27  31  32  33  34  35 0
 6-311+G(2d,p)
 ****
 36  37 0
 6-311+G(2d,p)
 ****
 1  2  3  4  5  17  18  19  20  21  22  23  24  25 0
 3-21G
 ****
 26  28  29  30  38  39  40  41  42  43  44  45 0
 3-21G
 ****


