%nproc=1
%NoSave
%Mem=1900MB
#P OB98/GEN NMR

erre ene a

0 1
  C      -14.258    -204.213    -265.198
  O      -14.702    -204.057    -263.864
  H      -14.954    -204.869    -265.725
  H      -13.265    -204.672    -265.207
  H      -14.227    -203.244    -265.706
  P      -13.917    -202.985    -262.962
  C      -15.772    -201.316    -262.147
  O      -14.983    -202.462    -261.885
  C      -16.848    -201.145    -261.072
  O      -17.887    -202.134    -261.294
  C      -16.326    -201.329    -259.646
  O      -17.031    -200.429    -258.788
  C      -16.723    -202.757    -259.309
  O      -16.813    -202.973    -257.903
  C      -18.049    -202.888    -260.076
  N      -18.400    -204.280    -260.348
  C      -18.787    -205.056    -259.251
  O      -18.807    -204.566    -258.120
  N      -19.101    -206.376    -259.448
  C      -18.975    -206.897    -260.629
  N      -19.276    -208.217    -260.753
  C      -18.528    -206.128    -261.806
  C      -18.269    -204.838    -261.598
  O      -13.764    -201.755    -263.974
  O      -12.629    -203.482    -262.395
  H      -15.908    -202.938    -257.524
  H      -14.576    -201.559    -264.471
  H      -18.429    -206.610    -262.768
  H      -17.944    -204.197    -262.408
  H      -18.869    -202.431    -259.507
  H      -15.982    -203.458    -259.710
  H      -15.252    -201.156    -259.562
  H      -17.313    -200.162    -261.199
  H      -19.557    -208.712    -259.916
  H      -16.250    -201.399    -263.128
  H      -19.163    -208.739    -261.610
  H      -15.110    -200.445    -262.163
  P      -16.271    -199.769    -257.544
  C      -15.529    -197.593    -258.729
  O      -16.305    -198.173    -257.687
  O      -14.938    -200.350    -257.216
  O      -17.298    -200.024    -256.331
  H      -16.774    -200.276    -255.546
  H      -15.643    -196.529    -258.709
  H      -15.862    -197.970    -259.674
  H      -14.498    -197.844    -258.588

 6  7  8  9  10  11  12  13  14  15  16  26  30  31  32  33  35 0
 6-311+G(2d,p)
 ****
 37  38 0
 6-311+G(2d,p)
 ****
 1  2  3  4  5  17  18  19  20  21  22  23  24  25 0
 3-21G
 ****
 27  28  29  34  36  39  40  41  42  43  44  45  46 0
 3-21G
 ****


