%nproc=1
%NoSave
%Mem=1900MB
#P OB98/GEN NMR

erre ene a

0 1
  C      358.377     -64.412     195.364
  O      359.236     -65.020     194.420
  H      357.609     -65.133     195.657
  H      357.890     -63.543     194.919
  H      358.934     -64.110     196.256
  P      360.573     -64.228     194.027
  C      361.857     -65.721     195.725
  O      361.589     -64.408     195.258
  C      363.144     -65.732     196.547
  O      364.236     -65.270     195.702
  C      363.103     -64.821     197.783
  O      363.845     -65.453     198.831
  C      363.850     -63.585     197.322
  O      364.404     -62.816     198.382
  C      364.910     -64.209     196.409
  N      365.492     -63.245     195.478
  C      366.843     -62.949     195.628
  O      367.599     -63.500     196.425
  N      367.326     -61.965     194.802
  C      366.603     -61.252     193.892
  O      367.088     -60.367     193.197
  C      365.181     -61.604     193.788
  C      364.698     -62.566     194.576
  O      360.127     -62.695     194.134
  O      361.149     -64.565     192.693
  H      359.777     -62.382     193.280
  H      364.826     -62.028     197.983
  H      368.303     -61.737     194.898
  H      364.576     -61.052     193.081
  H      363.649     -62.836     194.540
  H      365.705     -64.669     197.009
  H      363.178     -62.934     196.749
  H      362.093     -64.586     198.134
  H      363.372     -66.766     196.830
  H      361.973     -66.392     194.870
  H      361.011     -66.067     196.333
  P      363.008     -66.076     200.053
  C      363.907     -68.531     199.881
  O      362.825     -67.630     199.699
  O      361.565     -65.436     199.797
  O      363.610     -65.778     201.386
  H      361.354     -65.338     198.853
  H      363.603     -69.516     199.595
  H      364.200     -68.533     200.910
  H      364.733     -68.223     199.275

 6  7  8  9  10  11  12  13  14  15  16  27  31  32  33  34  35 0
 6-311+G(2d,p)
 ****
 36  37 0
 6-311+G(2d,p)
 ****
 1  2  3  4  5  17  18  19  20  21  22  23  24  25 0
 3-21G
 ****
 26  28  29  30  38  39  40  41  42  43  44  45 0
 3-21G
 ****


