%nproc=1
%NoSave
%Mem=1900MB
#P OB98/GEN NMR

erre ene a

0 1
  C       24.226      83.642     157.808
  O       22.853      83.324     157.904
  P       21.781      84.356     157.303
  C       21.205      84.872     159.819
  O       20.747      84.689     158.488
  C       20.063      85.379     160.706
  O       19.675      86.710     160.258
  C       18.810      84.500     160.697
  O       18.242      84.550     162.013
  C       17.903      85.214     159.705
  O       16.531      84.890     159.880
  C       18.255      86.675     160.002
  N       17.906      87.593     158.914
  C       16.601      88.083     158.863
  O       15.718      87.767     159.664
  N       16.326      88.937     157.822
  C       17.183      89.280     156.815
  O       16.878      90.033     155.899
  C       18.532      88.694     156.905
  C       18.828      87.903     157.926
  O       20.951      83.403     156.321
  O       22.394      85.552     156.652
  H       20.843      82.498     156.663
  H       16.431      83.921     159.778
  H       15.399      89.329     157.784
  H       19.237      88.935     156.107
  H       19.810      87.453     158.009
  H       17.756      87.000     160.926
  H       18.194      84.937     158.681
  H       19.023      83.460     160.422
  H       20.451      85.484     161.730
  H       22.018      85.607     159.821
  H       21.610      83.924     160.194
  P       17.923      83.147     162.754
  C       15.473      83.732     163.485
  O       16.807      83.444     163.867
  O       19.255      82.985     163.628
  O       17.680      81.991     161.838
  H       19.500      83.784     164.115
  H       14.824      83.566     164.355
  H       15.139      83.087     162.673
  H       15.396      84.777     163.187
  H       24.805      82.859     158.252
  H       24.416      84.561     158.322
  H       24.497      83.746     156.778

 3  4  5  6  7  8  9  10  11  12  13  24  28  29  30  31  32 0
 6-311+G(2d,p)
 ****
 33  34 0
 6-311+G(2d,p)
 ****
 1  2  14  15  16  17  18  19  20  21  22  23  25  26  27 0
 3-21G
 ****
 35  36  37  38  39  40  41  42  43  44  45 0
 3-21G
 ****


