%nproc=1
%NoSave
%Mem=1900MB
#P OB98/GEN NMR

erre ene a

0 1
  C     -504.321     922.179    -298.427
  O     -504.766     922.985    -297.354
  P     -505.174     922.240    -295.985
  C     -505.410     924.392    -294.537
  O     -506.064     923.304    -295.168
  C     -506.367     925.590    -294.420
  O     -506.509     926.241    -295.694
  C     -507.772     925.247    -293.980
  O     -507.879     925.085    -292.578
  C     -508.532     926.475    -294.432
  O     -508.333     927.542    -293.492
  C     -507.835     926.818    -295.776
  N     -510.729     928.013    -299.805
  C     -510.261     928.760    -298.804
  N     -509.509     928.361    -297.746
  C     -509.286     927.034    -297.802
  C     -509.711     926.143    -298.747
  C     -510.466     926.675    -299.806
  N     -510.933     925.918    -300.866
  N     -509.292     924.867    -298.465
  C     -508.583     924.987    -297.369
  N     -508.530     926.273    -296.916
  O     -503.787     922.233    -295.172
  O     -505.736     920.890    -296.143
  H     -507.378     927.556    -293.279
  H     -503.797     921.517    -294.498
  H     -510.503     929.804    -298.816
  H     -508.076     924.175    -296.848
  H     -507.730     927.896    -295.926
  H     -509.614     926.321    -294.518
  H     -508.143     924.357    -294.511
  H     -505.907     926.316    -293.727
  H     -504.545     924.695    -295.126
  H     -511.299     926.394    -301.666
  H     -510.559     924.970    -300.964
  H     -505.075     924.086    -293.545
  P     -508.032     923.591    -292.026
  C     -506.954     923.733    -289.658
  O     -508.136     923.746    -290.405
  O     -506.592     922.964    -292.254
  O     -509.112     922.820    -292.689
  H     -506.657     921.981    -292.340
  H     -507.165     924.148    -288.665
  H     -506.182     924.360    -290.114
  H     -506.569     922.710    -289.542
  H     -504.086     922.800    -299.266
  H     -505.093     921.489    -298.699
  H     -503.448     921.638    -298.128

 3  4  5  6  7  8  9  10  11  12  22  25  29  30  31  32 0
 6-311+G(2d,p)
 ****
 33  36  37 0
 6-311+G(2d,p)
 ****
 1  2  13  14  15  16  17  18  19  20  21  23  24  26 0
 3-21G
 ****
 27  28  34  35  38  39  40  41  42  43  44  45  46  47  48 0
 3-21G
 ****


