%nproc=1
%NoSave
%Mem=1900MB
#P OB98/GEN NMR

erre ene a

0 1
  C     -718.056     883.065      66.398
  O     -718.201     882.764      65.007
  P     -719.692     882.713      64.434
  C     -719.795     884.637      62.672
  O     -719.658     883.229      62.918
  C     -719.137     885.007      61.340
  O     -717.705     885.152      61.474
  C     -719.332     883.958      60.258
  O     -720.651     883.985      59.746
  C     -718.249     884.351      59.266
  O     -718.695     885.483      58.460
  C     -717.106     884.807      60.209
  N     -712.816     882.758      58.331
  C     -713.598     883.780      57.889
  N     -714.722     884.265      58.441
  C     -715.032     883.585      59.577
  C     -714.324     882.550      60.138
  C     -713.175     882.116      59.469
  N     -712.366     881.075      59.909
  N     -714.938     882.117      61.292
  C     -716.009     882.871      61.421
  N     -716.105     883.783      60.402
  O     -720.441     883.888      65.222
  O     -720.364     881.381      64.638
  H     -717.969     885.663      57.837
  H     -721.062     883.504      65.874
  H     -713.273     884.257      56.984
  H     -716.746     882.795      62.210
  H     -716.598     885.707      59.823
  H     -717.973     883.559      58.569
  H     -719.113     882.939      60.653
  H     -719.565     885.964      61.021
  H     -719.335     885.202      63.497
  H     -711.607     880.785      59.312
  H     -712.680     880.535      60.693
  H     -720.862     884.909      62.667
  P     -721.166     882.720      58.899
  C     -723.084     882.249      60.552
  O     -722.749     882.653      59.227
  O     -720.564     881.501      59.763
  O     -720.797     882.725      57.459
  H     -720.722     881.630      60.726
  H     -724.186     882.270      60.644
  H     -722.640     882.901      61.285
  H     -722.743     881.200      60.724
  H     -717.017     883.069      66.656
  H     -718.564     882.324      66.978
  H     -718.478     884.027      66.601

 3  4  5  6  7  8  9  10  11  12  22  25  29  30  31  32 0
 6-311+G(2d,p)
 ****
 33  36  37 0
 6-311+G(2d,p)
 ****
 1  2  13  14  15  16  17  18  19  20  21  23  24  26 0
 3-21G
 ****
 27  28  34  35  38  39  40  41  42  43  44  45  46  47  48 0
 3-21G
 ****


