%nproc=1
%NoSave
%Mem=1900MB
#P OB98/GEN NMR

erre ene a

0 1
  C     1025.999    -174.919      65.120
  O     1025.164    -174.223      64.221
  H     1026.193    -175.916      64.712
  H     1025.490    -175.027      66.081
  H     1026.952    -174.406      65.261
  P     1025.075    -172.630      64.329
  C     1024.935    -171.990      61.832
  O     1024.240    -172.094      63.066
  C     1024.061    -171.385      60.727
  O     1023.257    -172.411      60.109
  C     1023.077    -170.348      61.280
  O     1023.594    -169.037      61.433
  C     1021.977    -170.372      60.219
  O     1022.296    -169.497      59.123
  C     1021.985    -171.838      59.761
  N     1016.964    -172.774      59.961
  C     1017.643    -171.792      59.249
  N     1016.875    -170.924      58.553
  N     1018.941    -171.680      59.246
  C     1019.571    -172.559      60.065
  C     1019.004    -173.560      60.820
  C     1017.568    -173.716      60.776
  O     1016.917    -174.560      61.390
  N     1019.963    -174.263      61.524
  C     1021.086    -173.636      61.244
  N     1020.908    -172.612      60.340
  O     1026.570    -172.146      63.980
  O     1024.640    -172.099      65.660
  H     1021.491    -169.352      58.603
  H     1026.747    -171.285      64.400
  H     1015.972    -172.832      59.901
  H     1022.062    -173.896      61.645
  H     1021.892    -171.915      58.673
  H     1021.018    -170.038      60.627
  H     1015.872    -170.903      58.622
  H     1022.648    -170.689      62.228
  H     1017.310    -170.048      58.245
  H     1024.703    -170.958      59.951
  H     1025.239    -173.000      61.554
  H     1025.847    -171.404      61.961
  P     1023.010    -168.074      62.574
  C     1025.266    -166.791      62.401
  O     1023.862    -166.718      62.529
  O     1023.501    -168.790      63.931
  O     1021.534    -167.897      62.551
  H     1022.788    -169.347      64.285
  H     1025.675    -165.802      62.387
  H     1025.515    -167.293      61.489
  H     1025.672    -167.333      63.229

 6  7  8  9  10  11  12  13  14  15  26  29  33  34 0
 6-311+G(2d,p)
 ****
 36  38  39  40  41 0
 6-311+G(2d,p)
 ****
 1  2  3  4  5  16  17  18  19  20  21  22  23  24  25 0
 3-21G
 ****
 27  28  30  31  32  35  37  42  43  44  45  46  47 0
 3-21G
 ****
 48  49 0
 3-21G
 ****


