%nproc=1
%NoSave
%Mem=1900MB
#P OB98/GEN NMR

erre ene a

0 1
  C     -296.792    -237.401    -159.237
  O     -298.006    -237.632    -158.527
  P     -298.279    -239.096    -157.927
  C     -297.834    -238.645    -155.353
  O     -297.469    -239.278    -156.563
  C     -297.919    -239.699    -154.237
  O     -296.646    -240.365    -154.081
  C     -298.293    -239.109    -152.877
  O     -299.689    -239.011    -152.706
  C     -297.631    -240.087    -151.929
  O     -298.423    -241.288    -151.809
  C     -296.301    -240.388    -152.666
  N     -295.161    -239.471    -152.444
  C     -294.519    -239.454    -151.206
  O     -294.840    -240.156    -150.250
  N     -293.459    -238.589    -151.092
  C     -292.873    -237.885    -152.109
  O     -291.892    -237.177    -151.957
  C     -293.500    -238.055    -153.424
  C     -294.598    -238.813    -153.531
  O     -297.531    -240.069    -158.945
  O     -299.732    -239.444    -157.781
  H     -298.355    -241.759    -152.660
  H     -298.173    -240.641    -159.405
  H     -293.029    -238.512    -150.180
  H     -293.043    -237.553    -154.264
  H     -295.062    -238.943    -154.504
  H     -295.949    -241.399    -152.429
  H     -297.561    -239.675    -150.917
  H     -297.806    -238.136    -152.746
  H     -298.666    -240.455    -154.530
  H     -298.797    -238.134    -155.454
  H     -297.098    -237.881    -155.102
  P     -300.347    -237.589    -152.352
  C     -301.013    -236.611    -154.632
  O     -300.035    -236.644    -153.614
  O     -300.012    -237.024    -151.018
  O     -301.925    -237.861    -152.512
  H     -302.334    -238.062    -151.638
  H     -300.757    -235.817    -155.345
  H     -302.004    -236.397    -154.206
  H     -301.037    -237.565    -155.159
  H     -296.761    -236.385    -159.570
  H     -296.743    -238.055    -160.082
  H     -295.960    -237.590    -158.592

 3  4  5  6  7  8  9  10  11  12  13  23  28  29  30  31  32 0
 6-311+G(2d,p)
 ****
 33  34 0
 6-311+G(2d,p)
 ****
 1  2  14  15  16  17  18  19  20  21  22  24  25  26  27 0
 3-21G
 ****
 35  36  37  38  39  40  41  42  43  44  45 0
 3-21G
 ****


