%nproc=1
%NoSave
%Mem=1900MB
#P OB98/GEN NMR

erre ene a

0 1
  C        4.398     182.787      75.943
  O        3.665     182.018      74.982
  P        2.245     181.409      75.418
  C        2.178     179.018      74.278
  O        1.740     180.363      74.318
  C        1.782     178.404      72.921
  O        0.349     178.452      72.741
  C        2.391     179.129      71.721
  O        3.694     178.651      71.420
  C        1.375     178.863      70.630
  O        1.533     177.530      70.111
  C        0.048     178.989      71.421
  N       -0.542     180.339      71.580
  C       -0.953     181.047      70.459
  O       -0.853     180.645      69.304
  N       -1.505     182.285      70.698
  C       -1.852     182.796      71.926
  O       -2.399     183.879      72.073
  C       -1.534     181.927      73.066
  C       -0.898     180.778      72.851
  O        1.235     182.638      75.258
  O        2.217     180.832      76.807
  H        2.411     177.503      69.673
  H        0.866     182.893      76.133
  H       -1.746     182.848      69.901
  H       -1.826     182.271      74.053
  H       -0.664     180.134      73.700
  H       -0.730     178.348      70.979
  H        1.512     179.544      69.778
  H        2.411     180.212      71.908
  H        2.093     177.350      72.906
  H        1.732     178.440      75.086
  H        3.259     178.979      74.404
  P        4.972     179.271      72.157
  C        6.549     179.545      70.145
  O        6.251     178.791      71.301
  O        5.058     179.051      73.634
  O        4.882     180.846      71.798
  H        4.447     181.349      72.516
  H        7.507     179.198      69.745
  H        6.599     180.604      70.384
  H        5.782     179.376      69.381
  H        5.316     183.122      75.507
  H        4.610     182.180      76.799
  H        3.816     183.634      76.241

 3  4  5  6  7  8  9  10  11  12  13  23  28  29  30  31  32 0
 6-311+G(2d,p)
 ****
 33  34 0
 6-311+G(2d,p)
 ****
 1  2  14  15  16  17  18  19  20  21  22  24  25  26  27 0
 3-21G
 ****
 35  36  37  38  39  40  41  42  43  44  45 0
 3-21G
 ****


