%nproc=1
%NoSave
%Mem=1900MB
#P OB98/GEN NMR

erre ene a

0 1
  C     -733.178    -234.281     231.091
  O     -734.058    -233.231     231.437
  P     -735.034    -232.583     230.346
  C     -733.173    -230.921     229.524
  O     -734.131    -231.899     229.213
  C     -732.444    -230.510     228.236
  O     -731.653    -231.596     227.741
  C     -733.430    -230.102     227.141
  O     -733.626    -228.691     227.142
  C     -732.761    -230.623     225.881
  O     -731.749    -229.695     225.430
  C     -732.105    -231.926     226.396
  N     -732.934    -233.138     226.474
  C     -733.222    -233.851     225.312
  O     -732.800    -233.552     224.198
  N     -734.066    -234.928     225.469
  C     -734.574    -235.375     226.657
  O     -735.501    -236.179     226.749
  C     -734.017    -234.754     227.859
  C     -733.258    -233.666     227.716
  O     -735.664    -231.331     231.112
  O     -736.076    -233.497     229.795
  H     -731.095    -229.619     226.142
  H     -736.551    -231.555     231.451
  H     -734.385    -235.366     224.612
  H     -734.293    -235.161     228.822
  H     -732.867    -233.166     228.602
  H     -731.216    -232.175     225.800
  H     -733.474    -230.715     225.064
  H     -734.386    -230.630     227.273
  H     -731.767    -229.666     228.463
  H     -732.454    -231.305     230.256
  H     -733.655    -230.051     229.980
  P     -735.099    -228.105     226.932
  C     -734.770    -227.616     224.438
  O     -735.462    -228.396     225.392
  O     -735.308    -226.696     227.387
  O     -736.029    -229.134     227.755
  H     -736.225    -228.769     228.642
  H     -734.973    -228.018     223.449
  H     -733.702    -227.631     224.629
  H     -735.143    -226.582     224.475
  H     -732.615    -234.573     231.953
  H     -732.510    -233.948     230.324
  H     -733.743    -235.117     230.734

 3  4  5  6  7  8  9  10  11  12  13  23  28  29  30  31  32 0
 6-311+G(2d,p)
 ****
 33  34 0
 6-311+G(2d,p)
 ****
 1  2  14  15  16  17  18  19  20  21  22  24  25  26  27 0
 3-21G
 ****
 35  36  37  38  39  40  41  42  43  44  45 0
 3-21G
 ****


