%nproc=1
%NoSave
%Mem=1900MB
#P OB98/GEN NMR

erre ene a

0 1
  C     1137.154    1270.384    -221.372
  O     1138.468    1270.848    -221.042
  P     1139.017    1272.297    -221.447
  C     1141.063    1271.802    -222.926
  O     1140.604    1272.213    -221.660
  C     1142.526    1271.270    -222.885
  O     1142.568    1270.066    -222.124
  C     1143.121    1270.950    -224.252
  O     1143.486    1272.115    -224.931
  C     1144.288    1270.044    -223.815
  O     1145.429    1270.823    -223.413
  C     1143.666    1269.271    -222.638
  N     1143.257    1267.940    -222.992
  C     1144.250    1267.110    -223.609
  O     1145.363    1267.592    -223.861
  N     1143.913    1265.835    -223.932
  C     1142.702    1265.410    -223.741
  N     1142.447    1264.091    -224.057
  C     1141.644    1266.235    -223.169
  C     1141.988    1267.462    -222.827
  O     1138.573    1273.398    -220.554
  O     1138.462    1272.540    -222.939
  H     1145.978    1270.227    -222.880
  H     1138.318    1273.488    -223.065
  H     1140.634    1265.853    -223.057
  H     1141.263    1268.167    -222.420
  H     1144.403    1269.229    -221.811
  H     1144.617    1269.390    -224.645
  H     1142.414    1270.363    -224.842
  H     1143.114    1272.028    -222.377
  H     1143.201    1263.549    -224.440
  H     1141.031    1272.666    -223.615
  H     1141.536    1263.675    -223.968
  H     1140.393    1271.029    -223.337
  P     1143.043    1272.336    -226.455
  C     1145.321    1273.232    -227.179
  O     1143.940    1273.497    -227.064
  O     1141.571    1272.456    -226.673
  O     1143.601    1271.019    -227.214
  H     1143.004    1270.803    -227.945
  H     1145.744    1273.890    -227.948
  H     1145.512    1272.203    -227.467
  H     1145.800    1273.464    -226.219
  H     1137.022    1269.391    -220.996
  H     1137.033    1270.382    -222.435
  H     1136.426    1271.032    -220.931

 3  4  5  6  7  8  9  10  11  12  13  23  27  28  29  30  32 0
 6-311+G(2d,p)
 ****
 34  35 0
 6-311+G(2d,p)
 ****
 1  2  14  15  16  17  18  19  20  21  22  24  25  26 0
 3-21G
 ****
 31  33  36  37  38  39  40  41  42  43  44  45  46 0
 3-21G
 ****


