%nproc=1
%NoSave
%Mem=1900MB
#P OB98/GEN NMR

erre ene a

0 1
  C     -141.693     717.889     670.990
  O     -140.975     716.767     670.517
  H     -142.762     717.690     670.883
  H     -141.437     718.776     670.404
  H     -141.471     718.063     672.051
  P     -139.375     716.848     670.607
  C     -137.575     715.021     671.050
  O     -138.833     715.338     670.469
  C     -137.341     713.516     670.954
  O     -138.188     712.823     671.891
  C     -137.672     712.921     669.593
  O     -136.652     713.159     668.630
  C     -137.844     711.453     669.951
  O     -136.581     710.773     669.996
  C     -138.470     711.512     671.345
  N     -142.113     708.403     669.583
  C     -140.774     708.338     669.526
  N     -139.864     709.205     670.031
  C     -140.485     710.204     670.678
  C     -141.843     710.401     670.827
  C     -142.692     709.446     670.241
  N     -144.056     709.527     670.285
  N     -142.088     711.574     671.519
  C     -140.904     712.068     671.804
  N     -139.899     711.274     671.313
  O     -139.116     717.205     672.148
  O     -138.736     717.836     669.693
  H     -136.766     709.870     670.327
  H     -138.939     718.162     672.236
  H     -140.364     707.486     668.986
  H     -140.723     712.993     672.336
  H     -138.035     710.775     672.029
  H     -138.468     710.947     669.208
  H     -138.639     713.315     669.233
  H     -136.291     713.300     671.220
  H     -137.571     715.316     672.098
  H     -136.790     715.575     670.519
  H     -144.596     708.834     669.787
  H     -144.487     710.350     670.674
  P     -136.810     712.469     667.196
  C     -135.542     712.864     664.944
  O     -136.092     713.426     666.123
  O     -138.374     712.642     666.860
  O     -136.387     711.041     667.134
  H     -138.690     711.859     666.360
  H     -135.107     713.639     664.348
  H     -136.315     712.377     664.387
  H     -134.789     712.151     665.207

 6  7  8  9  10  11  12  13  14  15  25  28  32  33  34  35 0
 6-311+G(2d,p)
 ****
 36  37  40 0
 6-311+G(2d,p)
 ****
 1  2  3  4  5  16  17  18  19  20  21  22  23  24 0
 3-21G
 ****
 26  27  29  30  31  38  39 41  42  43  44  45  46  47  48 0
 3-21G
 ****


