%nproc=1
%NoSave
%Mem=1900MB
#P OB98/GEN NMR

erre ene a

0 1
  C      153.577       7.892      32.485
  O      153.173       9.214      32.796
  P      152.312      10.024      31.718
  C      154.530      11.148      30.962
  O      153.161      11.316      31.288
  C      155.030      12.332      30.131
  O      156.482      12.257      30.005
  C      154.451      12.386      28.708
  O      154.312      13.769      28.350
  C      155.555      11.755      27.882
  O      155.474      12.075      26.502
  C      156.786      12.322      28.598
  N      158.014      11.598      28.277
  C      159.102      12.347      27.839
  O      159.087      13.570      27.707
  N      160.216      11.632      27.489
  C      160.318      10.273      27.447
  O      161.306       9.693      27.011
  C      159.138       9.533      27.920
  C      158.059      10.218      28.308
  O      151.112      10.629      32.586
  O      151.815       9.205      30.573
  H      155.631      13.032      26.413
  H      150.306      10.093      32.474
  H      161.016      12.160      27.179
  H      159.192       8.452      27.921
  H      157.167       9.696      28.642
  H      156.913      13.383      28.347
  H      155.504      10.664      27.979
  H      153.494      11.867      28.604
  H      154.799      13.260      30.671
  H      154.652      10.230      30.385
  H      155.118      11.047      31.880
  P      152.905      14.250      27.742
  C      153.489      13.963      25.212
  O      153.209      14.837      26.285
  O      152.627      15.554      28.633
  O      151.827      13.219      27.837
  H      153.418      16.102      28.751
  H      152.926      13.030      25.294
  H      154.558      13.739      25.198
  H      153.219      14.457      24.275
  H      154.140       7.490      33.301
  H      154.184       7.902      31.604
  H      152.712       7.285      32.315

 3  4  5  6  7  8  9  10  11  12  13  23  28  29  30  31  32 0
 6-311+G(2d,p)
 ****
 33  34 0
 6-311+G(2d,p)
 ****
 1  2  14  15  16  17  18  19  20  21  22  24  25  26 0
 3-21G
 ****
 27  35  36  37  38  39  40  41  42  43  44  45 0
 3-21G
 ****


