%nproc=1
%NoSave
%Mem=1900MB
#P OB98/GEN NMR

erre ene a

0 1
  C       62.953     -37.997      -4.648
  O       62.358     -38.849      -3.685
  P       63.303     -39.829      -2.844
  C       63.655     -41.554      -4.757
  O       63.144     -41.303      -3.458
  C       63.252     -42.953      -5.227
  O       63.516     -43.076      -6.658
  C       64.007     -44.090      -4.524
  O       63.107     -45.202      -4.412
  C       65.102     -44.421      -5.520
  O       65.664     -45.709      -5.327
  C       64.332     -44.251      -6.834
  N       65.209     -44.129      -7.996
  C       65.894     -45.269      -8.402
  O       65.806     -46.361      -7.842
  N       66.753     -45.105      -9.455
  C       67.057     -43.926     -10.069
  O       67.923     -43.826     -10.929
  C       66.302     -42.754      -9.598
  C       65.427     -42.906      -8.601
  O       62.563     -39.926      -1.429
  O       64.715     -39.368      -2.706
  H       64.930     -46.350      -5.310
  H       62.994     -39.341      -0.778
  H       67.250     -45.924      -9.769
  H       66.502     -41.805     -10.078
  H       64.872     -42.056      -8.221
  H       63.648     -45.096      -6.982
  H       65.909     -43.684      -5.432
  H       64.398     -43.815      -3.540
  H       62.170     -43.070      -5.087
  H       64.743     -41.483      -4.735
  H       63.283     -40.792      -5.451
  P       62.765     -45.745      -2.939
  C       65.066     -46.854      -2.390
  O       63.697     -47.021      -2.691
  O       61.310     -46.371      -3.183
  O       62.790     -44.685      -1.887
  H       61.255     -46.878      -4.010
  H       65.240     -45.955      -1.794
  H       65.635     -46.787      -3.319
  H       65.412     -47.723      -1.825
  H       62.195     -37.409      -5.121
  H       63.457     -38.588      -5.384
  H       63.657     -37.351      -4.166

 3  4  5  6  7  8  9  10  11  12  13  23  28  29  30  31  32 0
 6-311+G(2d,p)
 ****
 33  34 0
 6-311+G(2d,p)
 ****
 1  2  14  15  16  17  18  19  20  21  22  24  25  26 0
 3-21G
 ****
 27  35  36  37  38  39  40  41  42  43  44  45 0
 3-21G
 ****


