%nproc=1
%NoSave
%Mem=1900MB
#P OB98/GEN NMR

erre ene a

0 1
  C     1145.004    -200.796    -304.402
  O     1145.505    -201.529    -305.498
  H     1145.376    -201.252    -303.472
  H     1143.912    -200.826    -304.391
  H     1145.351    -199.758    -304.450
  P     1145.050    -201.033    -306.958
  C     1145.692    -203.367    -307.920
  O     1144.681    -202.366    -307.775
  C     1145.087    -204.622    -308.562
  O     1144.278    -205.339    -307.613
  C     1144.219    -204.367    -309.771
  O     1145.004    -204.209    -310.947
  C     1143.366    -205.631    -309.814
  O     1144.079    -206.720    -310.414
  C     1143.138    -205.897    -308.306
  N     1139.611    -206.244    -304.704
  C     1140.748    -206.987    -304.902
  N     1140.959    -208.015    -304.044
  N     1141.607    -206.750    -305.875
  C     1141.248    -205.708    -306.651
  C     1140.147    -204.898    -306.573
  C     1139.219    -205.155    -305.476
  O     1138.209    -204.475    -305.210
  N     1140.133    -203.960    -307.560
  C     1141.203    -204.235    -308.276
  N     1141.921    -205.312    -307.795
  O     1146.429    -200.558    -307.637
  O     1144.026    -199.941    -306.974
  H     1143.514    -207.513    -310.407
  H     1146.237    -199.841    -308.267
  H     1138.994    -206.456    -303.943
  H     1141.527    -203.674    -309.170
  H     1143.103    -206.955    -308.087
  H     1142.449    -205.484    -310.388
  H     1140.211    -208.429    -303.516
  H     1143.574    -203.493    -309.610
  H     1141.797    -208.563    -304.198
  H     1145.950    -205.281    -308.824
  H     1146.084    -203.599    -306.942
  H     1146.494    -202.962    -308.550
  P     1145.090    -202.731    -311.584
  C     1144.388    -204.052    -313.718
  O     1144.344    -202.824    -313.015
  O     1146.619    -202.594    -311.987
  O     1144.644    -201.626    -310.682
  H     1146.846    -201.668    -312.154
  H     1143.853    -203.955    -314.640
  H     1143.938    -204.820    -313.124
  H     1145.406    -204.310    -313.922

 6  7  8  9  10  11  12  13  14  15  26  29  33  34 0
 6-311+G(2d,p)
 ****
 36  38  39  40  41 0
 6-311+G(2d,p)
 ****
 1  2  3  4  5  16  17  18  19  20  21  22  23  24  25 0
 3-21G
 ****
 27  28  30  31  32  35  37  42  43  44  45  46  47 0
 3-21G
 ****
 48  49 0
 3-21G
 ****


