%nproc=1
%NoSave
%Mem=1900MB
#P OB98/GEN NMR

erre ene a

0 1
  C       40.481    -568.464    -217.009
  O       39.728    -568.540    -218.210
  P       38.675    -567.387    -218.592
  C       37.328    -569.341    -219.575
  O       37.784    -568.013    -219.777
  C       36.826    -569.924    -220.906
  O       35.550    -569.313    -221.212
  C       37.711    -569.671    -222.126
  O       38.775    -570.595    -222.295
  C       36.691    -569.867    -223.249
  O       36.500    -571.273    -223.491
  C       35.437    -569.233    -222.664
  N       32.119    -565.810    -224.530
  C       31.986    -567.115    -224.200
  N       32.925    -567.961    -223.729
  C       34.100    -567.325    -223.544
  C       34.389    -565.996    -223.830
  C       33.328    -565.216    -224.346
  N       33.457    -563.885    -224.655
  N       35.701    -565.717    -223.533
  C       36.196    -566.858    -223.077
  N       35.255    -567.849    -223.060
  O       39.286    -566.055    -218.870
  O       37.658    -567.360    -217.362
  H       37.312    -571.618    -223.914
  H       37.149    -566.520    -217.369
  H       30.991    -567.532    -224.345
  H       37.218    -566.998    -222.751
  H       34.520    -569.791    -222.939
  H       37.028    -569.436    -224.203
  H       38.073    -568.627    -222.145
  H       36.664    -571.003    -220.761
  H       36.507    -569.323    -218.862
  H       32.629    -563.378    -224.882
  H       34.312    -563.412    -224.361
  H       38.136    -569.964    -219.161
  P       40.245    -569.977    -222.528
  C       40.725    -570.806    -224.971
  O       40.971    -570.956    -223.583
  O       41.015    -569.699    -221.283
  O       39.942    -568.667    -223.399
  H       39.599    -568.823    -224.290
  H       41.426    -571.450    -225.515
  H       40.897    -569.768    -225.290
  H       39.714    -571.100    -225.213
  H       41.121    -569.318    -216.935
  H       39.815    -568.443    -216.171
  H       41.074    -567.573    -217.016

 3  4  5  6  7  8  9  10  11  12  22  25  29  30  31  32 0
 6-311+G(2d,p)
 ****
 33  36  37 0
 6-311+G(2d,p)
 ****
 1  2  13  14  15  16  17  18  19  20  21  23  24  26 0
 3-21G
 ****
 27  28  34  35  38  39  40  41  42  43  44  45  46  47  48 0
 3-21G
 ****


