%nproc=1
%NoSave
%Mem=1900MB
#P OB98/GEN NMR

erre ene a

0 1
  C     -137.171     274.876      85.148
  O     -138.019     273.748      85.048
  H     -137.617     275.702      84.584
  H     -136.185     274.661      84.731
  H     -137.076     275.181      86.194
  P     -137.457     272.333      85.554
  C     -138.216     272.623      88.001
  O     -137.107     272.545      87.110
  C     -137.910     271.925      89.326
  O     -138.949     272.192      90.294
  C     -137.843     270.409      89.232
  O     -136.765     269.913      88.475
  C     -137.984     269.999      90.691
  O     -136.745     270.068      91.396
  C     -138.958     271.081      91.222
  N     -140.305     270.561      91.427
  C     -140.791     270.624      92.728
  O     -140.139     271.064      93.677
  N     -142.050     270.129      92.915
  C     -142.833     269.547      91.964
  O     -143.953     269.103      92.203
  C     -142.252     269.473      90.614
  C     -141.032     269.979      90.412
  O     -136.326     271.760      84.751
  O     -138.753     271.397      85.597
  H     -136.171     269.367      91.031
  H     -138.504     270.444      85.656
  H     -142.429     270.182      93.851
  H     -142.840     269.009      89.837
  H     -140.581     269.938      89.420
  H     -138.597     271.478      92.180
  H     -138.360     268.981      90.796
  H     -138.751     270.057      88.725
  H     -136.975     272.341      89.723
  H     -139.066     272.126      87.519
  H     -138.471     273.674      88.175
  P     -136.382     268.366      88.386
  C     -138.155     267.693      86.587
  O     -137.680     267.546      87.919
  O     -135.568     267.810      89.505
  O     -135.469     268.336      87.052
  H     -134.782     267.651      87.190
  H     -139.021     267.080      86.447
  H     -137.391     267.393      85.901
  H     -138.411     268.717      86.411

 6  7  8  9  10  11  12  13  14  15  16  26  31  32  33  34  35 0
 6-311+G(2d,p)
 ****
 36  37 0
 6-311+G(2d,p)
 ****
 1  2  3  4  5  17  18  19  20  21  22  23  24  25 0
 3-21G
 ****
 27  28  29  30  38  39  40  41  42  43  44  45 0
 3-21G
 ****


