%nproc=1
%NoSave
%Mem=1900MB
#P OB98/GEN NMR

erre ene a

0 1
  C      179.073     139.890     110.665
  O      180.118     139.996     111.642
  P      180.088     141.101     112.807
  C      180.766     143.563     113.139
  O      180.799     142.436     112.268
  C      181.419     144.794     112.497
  O      182.854     144.665     112.486
  C      181.008     145.043     111.047
  O      179.732     145.653     110.989
  C      182.161     145.917     110.559
  O      181.966     147.282     110.964
  C      183.358     145.304     111.298
  N      186.753     144.805     107.505
  C      186.235     145.893     108.116
  N      185.331     145.947     109.116
  C      184.977     144.706     109.501
  C      185.421     143.502     108.969
  C      186.352     143.580     107.920
  N      186.867     142.472     107.288
  N      184.817     142.437     109.604
  C      184.038     142.988     110.514
  N      184.102     144.354     110.494
  O      180.610     140.620     114.122
  O      178.548     141.522     112.928
  H      182.755     147.784     110.690
  H      178.361     141.822     113.838
  H      186.593     146.852     107.749
  H      183.416     142.439     111.212
  H      184.063     146.074     111.632
  H      182.264     145.910     109.470
  H      181.004     144.102     110.490
  H      181.174     145.666     113.117
  H      181.302     143.306     114.058
  H      187.504     142.613     106.523
  H      186.536     141.557     107.561
  H      179.721     143.784     113.386
  P      178.476     144.831     110.430
  C      177.609     144.101     108.126
  O      178.696     144.649     108.850
  O      177.135     145.352     110.827
  O      178.711     143.349     110.991
  H      177.849     142.912     111.118
  H      177.597     143.015     108.250
  H      177.742     144.337     107.067
  H      176.661     144.523     108.468
  H      179.296     139.091     109.989
  H      179.000     140.808     110.120
  H      178.144     139.692     111.157

 3  4  5  6  7  8  9  10  11  12  22  25  29  30  31  32 0
 6-311+G(2d,p)
 ****
 33  36  37 0
 6-311+G(2d,p)
 ****
 1  2  13  14  15  16  17  18  19  20  21  23  24  26 0
 3-21G
 ****
 27  28  34  35  38  39  40  41  42  43  44  45  46  47  48 0
 3-21G
 ****


