%nproc=1
%NoSave
%Mem=1900MB
#P OB98/GEN NMR

erre ene a

0 1
  C      580.343     931.477     397.702
  O      581.437     931.846     398.533
  P      581.619     933.404     398.879
  C      584.107     933.769     398.154
  O      582.712     933.990     397.866
  C      584.948     934.317     397.013
  O      585.053     933.366     395.933
  C      584.373     935.595     396.394
  O      584.665     936.744     397.180
  C      585.074     935.611     395.039
  O      586.400     936.185     395.147
  C      585.157     934.108     394.707
  N      584.192     933.689     393.700
  C      584.682     933.311     392.465
  O      585.899     933.319     392.207
  N      583.761     932.939     391.531
  C      582.409     932.974     391.674
  O      581.624     932.678     390.777
  C      581.930     933.422     392.997
  C      582.825     933.759     393.919
  O      582.354     933.397     400.286
  O      580.338     934.170     398.922
  H      586.293     937.013     395.653
  H      582.040     934.145     400.843
  H      584.114     932.630     390.644
  H      580.854     933.453     393.144
  H      582.487     934.102     394.895
  H      586.175     933.859     394.306
  H      584.530     936.199     394.300
  H      583.298     935.476     396.236
  H      585.973     934.496     397.396
  H      584.286     932.700     398.268
  H      584.352     934.258     399.100
  P      583.834     938.064     396.849
  C      586.101     939.081     396.014
  O      584.713     938.853     395.768
  O      584.031     938.893     398.219
  O      582.414     937.798     396.480
  H      584.876     938.692     398.635
  H      586.562     938.243     396.555
  H      586.215     939.992     396.599
  H      586.616     939.200     395.053
  H      580.347     930.417     397.557
  H      580.434     931.966     396.755
  H      579.426     931.770     398.169

 3  4  5  6  7  8  9  10  11  12  13  23  28  29  30  31  32 0
 6-311+G(2d,p)
 ****
 33  34 0
 6-311+G(2d,p)
 ****
 1  2  14  15  16  17  18  19  20  21  22  24  25  26 0
 3-21G
 ****
 27  35  36  37  38  39  40  41  42  43  44  45 0
 3-21G
 ****


