%nproc=1
%NoSave
%Mem=1900MB
#P OB98/GEN NMR

erre ene a

0 1
  C       36.386    -234.010     500.815
  O       37.047    -233.022     500.054
  H       37.096    -234.432     501.532
  H       36.031    -234.814     500.165
  H       35.548    -233.580     501.368
  P       36.191    -232.135     499.031
  C       37.560    -229.957     499.187
  O       36.337    -230.610     499.495
  C       38.330    -229.663     500.474
  O       38.488    -230.874     501.247
  C       39.741    -229.135     500.244
  O       39.721    -227.774     499.861
  C       40.375    -229.407     501.597
  O       40.025    -228.384     502.543
  C       39.730    -230.759     501.979
  N       40.607    -231.899     501.715
  C       41.710    -232.042     502.550
  O       41.982    -231.248     503.451
  N       42.515    -233.117     502.295
  C       42.395    -233.980     501.247
  O       43.197    -234.876     501.010
  C       41.224    -233.770     500.381
  C       40.397    -232.757     500.652
  O       34.790    -232.592     498.795
  O       37.054    -232.180     497.678
  H       40.501    -227.577     502.268
  H       36.626    -232.780     497.041
  H       43.327    -233.230     502.883
  H       41.087    -234.441     499.543
  H       39.533    -232.581     500.019
  H       39.468    -230.768     503.043
  H       41.461    -229.437     501.545
  H       40.248    -229.740     499.484
  H       37.742    -228.956     501.074
  H       37.338    -229.014     498.675
  H       38.147    -230.596     498.520
  P       40.196    -227.350     498.394
  C       38.118    -226.077     497.572
  O       38.894    -227.266     497.460
  O       41.325    -228.146     497.831
  O       40.614    -225.812     498.558
  H       41.558    -225.707     498.332
  H       37.281    -226.133     496.907
  H       38.722    -225.232     497.315
  H       37.768    -225.973     498.578

 6  7  8  9  10  11  12  13  14  15  16  26  31  32  33  34  35 0
 6-311+G(2d,p)
 ****
 36  37 0
 6-311+G(2d,p)
 ****
 1  2  3  4  5  17  18  19  20  21  22  23  24  25 0
 3-21G
 ****
 27  28  29  30  38  39  40  41  42  43  44  45 0
 3-21G
 ****


