%nproc=1
%NoSave
%Mem=1900MB
#P OB98/GEN NMR

erre ene a

0 1
  C      922.714    -370.309    -819.870
  O      921.685    -371.051    -820.494
  H      923.656    -370.513    -820.383
  H      922.807    -370.622    -818.825
  H      922.505    -369.238    -819.921
  P      920.173    -370.657    -820.117
  C      919.799    -369.608    -822.460
  O      919.784    -369.413    -821.056
  C      919.356    -368.333    -823.179
  O      917.956    -368.072    -822.914
  C      920.112    -367.077    -822.760
  O      921.343    -366.953    -823.463
  C      919.125    -365.999    -823.185
  O      919.196    -365.810    -824.618
  C      917.778    -366.628    -822.804
  N      916.652    -362.888    -819.564
  C      917.163    -362.830    -820.846
  N      917.418    -361.592    -821.334
  N      917.405    -363.882    -821.590
  C      917.124    -365.046    -820.961
  C      916.631    -365.246    -819.695
  C      916.347    -364.072    -818.896
  O      915.885    -364.075    -817.754
  N      916.476    -366.568    -819.409
  C      916.898    -367.185    -820.498
  N      917.317    -366.311    -821.465
  O      920.334    -370.003    -818.663
  O      919.206    -371.791    -820.103
  H      918.921    -366.655    -825.026
  H      920.050    -370.655    -817.998
  H      916.493    -362.054    -819.032
  H      916.930    -368.256    -820.630
  H      916.980    -366.343    -823.501
  H      919.340    -365.028    -822.726
  H      917.277    -360.748    -820.808
  H      920.258    -367.040    -821.673
  H      917.792    -361.529    -822.271
  H      919.451    -368.502    -824.256
  H      919.118    -370.426    -822.722
  H      920.814    -369.871    -822.775
  P      922.365    -365.804    -823.004
  C      924.432    -367.190    -822.264
  O      923.293    -366.436    -821.850
  O      921.422    -364.791    -822.197
  O      923.084    -365.116    -824.110
  H      921.336    -363.955    -822.696
  H      924.955    -367.549    -821.402
  H      925.082    -366.566    -822.842
  H      924.113    -368.020    -822.859

 6  7  8  9  10  11  12  13  14  15  26  29  33  34 0
 6-311+G(2d,p)
 ****
 36  38  39  40  41 0
 6-311+G(2d,p)
 ****
 1  2  3  4  5  16  17  18  19  20  21  22  23  24  25 0
 3-21G
 ****
 27  28  30  31  32  35  37  42  43  44  45  46  47 0
 3-21G
 ****
 48  49 0
 3-21G
 ****


