%nproc=1
%NoSave
%Mem=1900MB
#P OB98/GEN NMR

erre ene a

0 1
  C       77.008    -168.885      34.651
  O       77.366    -167.866      35.583
  P       78.081    -166.536      35.038
  C       80.482    -165.695      34.615
  O       79.668    -166.783      35.039
  C       81.915    -165.850      35.133
  O       82.002    -165.596      36.548
  C       82.474    -167.250      34.936
  O       82.811    -167.480      33.580
  C       83.651    -167.239      35.906
  O       84.800    -166.613      35.313
  C       83.110    -166.368      37.064
  N       82.723    -167.143      38.235
  C       83.685    -167.247      39.248
  O       84.795    -166.736      39.104
  N       83.364    -167.942      40.390
  C       82.192    -168.490      40.504
  N       81.929    -169.162      41.657
  C       81.155    -168.412      39.455
  C       81.488    -167.738      38.355
  O       77.634    -165.257      35.666
  O       77.733    -166.563      33.471
  H       85.044    -167.169      34.546
  H       77.685    -165.644      33.141
  H       80.191    -168.882      39.600
  H       80.786    -167.635      37.534
  H       83.870    -165.643      37.381
  H       83.947    -168.252      36.196
  H       81.732    -167.992      35.266
  H       82.550    -165.120      34.607
  H       82.659    -169.209      42.358
  H       80.054    -164.755      34.980
  H       81.032    -169.578      41.863
  H       80.461    -165.644      33.518
  P       82.154    -168.753      32.854
  C       82.953    -171.104      32.110
  O       83.312    -169.834      32.623
  O       81.856    -168.207      31.374
  O       80.906    -169.269      33.500
  H       81.046    -168.623      31.029
  H       83.858    -171.589      31.723
  H       82.225    -171.016      31.297
  H       82.538    -171.722      32.910
  H       76.545    -169.697      35.171
  H       77.887    -169.236      34.151
  H       76.324    -168.486      33.932

 3  4  5  6  7  8  9  10  11  12  13  23  27  28  29  30  32 0
 6-311+G(2d,p)
 ****
 34  35 0
 6-311+G(2d,p)
 ****
 1  2  14  15  16  17  18  19  20  21  22  24  25  26 0
 3-21G
 ****
 31  33  36  37  38  39  40  41  42  43  44  45  46 0
 3-21G
 ****


