%nproc=1
%NoSave
%Mem=1900MB
#P OB98/GEN NMR

erre ene a

0 1
  C      298.037    -558.890    -743.324
  O      297.746    -559.007    -744.707
  H      299.099    -559.103    -743.169
  H      297.441    -559.623    -742.754
  H      297.815    -557.878    -742.973
  P      296.212    -558.794    -745.133
  C      296.683    -557.421    -747.286
  O      296.206    -558.645    -746.736
  C      297.053    -557.609    -748.758
  O      298.272    -558.391    -748.899
  C      295.977    -558.312    -749.589
  O      294.992    -557.395    -750.023
  C      296.813    -558.864    -750.737
  O      297.087    -557.841    -751.721
  C      298.120    -559.286    -750.027
  N      298.607    -564.100    -751.492
  C      298.569    -562.939    -752.238
  N      298.632    -563.081    -753.578
  N      298.452    -561.738    -751.724
  C      298.334    -561.750    -750.364
  C      298.362    -562.828    -749.515
  C      298.559    -564.136    -750.095
  O      298.681    -565.208    -749.482
  N      298.243    -562.438    -748.196
  C      298.091    -561.120    -748.271
  N      298.152    -560.656    -749.565
  O      295.897    -557.307    -744.625
  O      295.241    -559.777    -744.569
  H      297.433    -558.262    -752.524
  H      294.969    -557.284    -744.283
  H      298.733    -564.987    -751.940
  H      297.967    -560.474    -747.419
  H      298.995    -559.159    -750.674
  H      296.292    -559.674    -751.258
  H      298.430    -563.960    -754.043
  H      295.545    -559.149    -749.024
  H      298.515    -562.228    -754.132
  H      297.271    -556.604    -749.176
  H      297.591    -557.115    -746.718
  H      295.922    -556.648    -747.185
  P      293.455    -557.852    -749.918
  C      292.518    -555.473    -749.404
  O      292.533    -556.585    -750.296
  O      293.221    -558.012    -748.329
  O      293.138    -559.115    -750.652
  H      293.199    -558.973    -748.103
  H      291.865    -554.717    -749.788
  H      293.508    -555.077    -749.312
  H      292.170    -555.791    -748.443

 6  7  8  9  10  11  12  13  14  15  26  29  33  34 0
 6-311+G(2d,p)
 ****
 36  38  39  40  41 0
 6-311+G(2d,p)
 ****
 1  2  3  4  5  16  17  18  19  20  21  22  23  24  25 0
 3-21G
 ****
 27  28  30  31  32  35  37  42  43  44  45  46  47 0
 3-21G
 ****
 48  49 0
 3-21G
 ****


