%nproc=1
%NoSave
%Mem=1900MB
#P OB98/GEN NMR

erre ene a

0 1
  C       94.304      93.634     111.144
  O       94.086      95.009     111.405
  P       95.375      95.915     111.711
  C       94.785      96.513     114.173
  O       94.914      96.967     112.828
  C       94.018      97.534     115.007
  O       94.721      98.790     115.018
  C       92.629      97.847     114.478
  O       91.725      96.813     114.811
  C       92.336      99.173     115.170
  O       91.776      98.961     116.476
  C       93.737      99.819     115.268
  N       93.899     100.942     114.360
  C       93.218     102.114     114.712
  O       92.520     102.141     115.727
  N       93.316     103.206     113.885
  C       94.026     103.130     112.803
  N       94.092     104.245     112.024
  C       94.742     101.908     112.386
  C       94.631     100.860     113.200
  O       95.515      96.805     110.392
  O       96.619      95.147     112.016
  H       92.449      98.453     116.973
  H       96.441      97.086     110.258
  H       95.320     101.898     111.473
  H       95.124      99.923     112.969
  H       93.919     100.179     116.288
  H       91.614      99.773     114.609
  H       92.655      97.994     113.392
  H       93.964      97.163     116.039
  H       93.585     105.064     112.333
  H       95.782      96.380     114.605
  H       94.635     104.295     111.175
  H       94.273      95.547     114.173
  P       90.923      96.111     113.617
  C       88.932      95.883     115.217
  O       89.813      95.209     114.340
  O       91.970      95.009     113.108
  O       90.447      96.987     112.508
  H       91.631      94.573     112.306
  H       88.139      95.195     115.517
  H       88.482      96.747     114.721
  H       89.473      96.208     116.112
  H       93.366      93.153     110.958
  H       94.775      93.181     111.991
  H       94.935      93.529     110.286

 3  4  5  6  7  8  9  10  11  12  13  21  23  27  28  29  30  32 0
 6-311+G(2d,p)
 ****
 34  35 0
 6-311+G(2d,p)
 ****
 1  2  14  15  16  17  18  19  20  22  24  25  26 0
 3-21G
 ****
 31  33  36  37  38  39  40  41  42  43  44  45  46 0
 3-21G
 ****


