%nproc=1
%NoSave
%Mem=1900MB
#P OB98/GEN NMR

erre ene a

0 1
  C     -416.996    -910.601     -93.200
  O     -417.107    -910.579     -94.615
  H     -417.919    -910.205     -92.769
  H     -416.161    -909.961     -92.884
  H     -416.845    -911.623     -92.847
  P     -415.844    -911.133     -95.437
  C     -416.981    -913.277     -96.411
  O     -416.450    -911.981     -96.654
  C     -418.065    -913.616     -97.430
  O     -419.333    -913.052     -96.974
  C     -417.805    -913.049     -98.840
  O     -418.438    -913.926     -99.780
  C     -418.572    -911.728     -98.774
  O     -418.748    -911.185    -100.067
  C     -419.826    -912.194     -98.024
  N     -423.527    -908.797     -98.957
  C     -423.011    -909.800     -99.705
  N     -422.044    -910.665     -99.391
  C     -421.592    -910.447     -98.135
  C     -422.018    -909.467     -97.253
  C     -423.033    -908.607     -97.705
  N     -423.549    -907.579     -96.951
  N     -421.318    -909.549     -96.052
  C     -420.482    -910.555     -96.219
  N     -420.610    -911.112     -97.467
  O     -415.233    -912.246     -94.463
  O     -414.825    -910.110     -95.829
  H     -419.408    -911.707    -100.574
  H     -414.521    -911.871     -93.932
  H     -423.443    -909.902    -100.702
  H     -419.777    -910.906     -95.489
  H     -420.482    -912.787     -98.676
  H     -418.016    -910.987     -98.190
  H     -416.749    -912.945     -99.073
  H     -418.203    -914.702     -97.457
  H     -417.395    -913.291     -95.399
  H     -416.170    -914.013     -96.470
  H     -424.266    -907.000     -97.355
  H     -423.178    -907.423     -96.019
  P     -418.219    -913.653    -101.359
  C     -416.879    -915.851    -101.818
  O     -418.031    -915.052    -102.106
  O     -416.739    -913.043    -101.391
  O     -419.192    -912.693    -101.994
  H     -416.640    -912.438    -102.169
  H     -416.912    -916.747    -102.401
  H     -416.870    -916.102    -100.778
  H     -415.994    -915.301    -102.059

 6  7  8  9  10  11  12  13  14  15  25  28  32  33  34  35 0
 6-311+G(2d,p)
 ****
 36  37  40 0
 6-311+G(2d,p)
 ****
 1  2  3  4  5  16  17  18  19  20  21  22  23  24 0
 3-21G
 ****
 26  27  29  30  31  38  39 41  42  43  44  45  46  47  48 0
 3-21G
 ****


