%nproc=1
%NoSave
%Mem=1900MB
#P OB98/GEN NMR

erre ene a

0 1
  C     -425.321    -525.064    -335.801
  O     -426.353    -525.593    -336.614
  P     -427.647    -526.197    -335.900
  C     -428.260    -526.591    -338.399
  O     -428.490    -526.963    -337.046
  C     -429.221    -527.354    -339.320
  O     -430.585    -527.110    -338.936
  C     -429.136    -526.921    -340.779
  O     -428.045    -527.540    -341.460
  C     -430.457    -527.444    -341.303
  O     -430.363    -528.866    -341.574
  C     -431.409    -527.190    -340.139
  N     -435.095    -524.898    -342.753
  C     -434.710    -526.219    -342.717
  N     -435.381    -527.055    -343.574
  N     -433.786    -526.716    -341.961
  C     -433.201    -525.773    -341.170
  C     -433.473    -524.412    -341.103
  C     -434.508    -523.895    -341.965
  O     -434.843    -522.718    -342.076
  N     -432.684    -523.778    -340.176
  C     -431.918    -524.735    -339.692
  N     -432.160    -525.950    -340.286
  O     -428.535    -524.914    -335.586
  O     -427.368    -527.009    -334.672
  H     -429.663    -528.983    -342.246
  H     -429.227    -525.122    -334.920
  H     -435.823    -524.579    -343.371
  H     -431.168    -524.590    -338.923
  H     -432.129    -528.005    -339.994
  H     -430.766    -526.982    -342.246
  H     -436.070    -526.734    -344.240
  H     -429.119    -525.839    -340.891
  H     -435.087    -528.033    -343.608
  H     -429.021    -528.422    -339.211
  H     -427.230    -526.825    -338.673
  H     -428.412    -525.501    -338.508
  P     -427.003    -526.572    -342.208
  C     -425.381    -528.599    -342.284
  O     -425.993    -527.539    -342.986
  O     -426.137    -525.982    -340.999
  O     -427.656    -525.498    -343.019
  H     -425.773    -525.112    -341.229
  H     -424.963    -529.310    -343.002
  H     -426.128    -529.132    -341.664
  H     -424.582    -528.215    -341.641
  H     -424.529    -524.701    -336.422
  H     -424.946    -525.831    -335.157
  H     -425.709    -524.260    -335.210

 3  4  5  6  7  8  9  10  11  12  23  26  30  31 0
 6-311+G(2d,p)
 ****
 33  35  36  37  38 0
 6-311+G(2d,p)
 ****
 1  2  13  14  15  16  17  18  19  20  21  22  24  25 0
 3-21G
 ****
 27  28  29  32  34  39  40  41  42  43  44  45  46  47  48  49 0
 3-21G
 ****


