%nproc=1
%NoSave
%Mem=1900MB
#P OB98/GEN NMR

erre ene a

0 1
  C      875.940    -897.700     123.880
  O      874.585    -898.030     124.251
  P      873.650    -898.690     123.137
  C      872.630    -896.430     122.273
  O      873.432    -897.560     122.008
  C      872.308    -895.680     120.981
  O      871.501    -896.510     120.117
  C      871.522    -894.390     121.190
  O      872.328    -893.350     121.705
  C      870.990    -894.170     119.788
  O      871.992    -893.560     118.965
  C      870.720    -895.600     119.287
  N      869.307    -895.970     119.300
  C      868.721    -896.120     118.040
  O      869.314    -895.960     116.980
  N      867.402    -896.450     118.067
  C      866.594    -896.640     119.164
  O      865.430    -896.950     119.098
  C      867.285    -896.410     120.442
  C      868.562    -896.100     120.466
  O      872.257    -898.750     123.905
  O      874.175    -900.000     122.649
  H      872.109    -897.990     124.499
  H      871.606    -893.480     118.048
  H      866.946    -896.580     117.148
  H      866.668    -896.490     121.342
  H      869.085    -895.900     121.395
  H      871.126    -895.750     118.260
  H      870.135    -893.520     119.753
  H      870.702    -894.570     121.858
  H      873.282    -895.450     120.486
  H      873.183    -895.750     122.959
  H      871.719    -896.740     122.787
  P      871.913    -892.750     123.126
  C      870.747    -890.640     122.119
  O      870.604    -891.820     122.889
  O      873.099    -891.700     123.389
  O      871.748    -893.760     124.211
  H      873.302    -891.160     122.593
  H      869.738    -890.360     121.745
  H      871.394    -890.770     121.268
  H      871.128    -889.830     122.778
  H      876.445    -897.269     124.719
  H      875.928    -896.999     123.072
  H      876.452    -898.588     123.574

 3  4  5  6  7  8  9  10  11  12  13  24  28  29  30  31  32 0
 6-311+G(2d,p)
 ****
 33  34 0
 6-311+G(2d,p)
 ****
 1  2  14  15  16  17  18  19  20  21  22  23  25  26  27 0
 3-21G
 ****
 35  36  37  38  39  40  41  42  43  44  45 0
 3-21G
 ****


