%nproc=1
%NoSave
%Mem=1900MB
#P OB98/GEN NMR

erre ene a

0 1
  C      340.885    -188.037     131.292
  O      342.095    -188.748     131.477
  P      342.743    -189.464     130.199
  C      341.446    -191.696     130.571
  O      341.715    -190.595     129.713
  C      340.935    -192.881     129.746
  O      339.584    -192.633     129.293
  C      341.746    -193.134     128.482
  O      342.954    -193.823     128.769
  C      340.767    -193.947     127.646
  O      340.802    -195.337     128.017
  C      339.417    -193.313     128.035
  N      338.901    -192.422     126.998
  C      338.344    -193.040     125.879
  O      338.305    -194.265     125.747
  N      337.872    -192.204     124.907
  C      337.949    -190.842     124.912
  O      337.557    -190.150     123.980
  C      338.571    -190.243     126.104
  C      339.015    -191.048     127.075
  O      343.967    -190.297     130.808
  O      343.189    -188.530     129.123
  H      340.009    -195.754     127.626
  H      344.711    -190.305     130.174
  H      337.445    -192.633     124.102
  H      338.647    -189.163     126.144
  H      339.488    -190.628     127.953
  H      338.672    -194.099     128.212
  H      340.996    -193.897     126.576
  H      341.953    -192.188     127.969
  H      340.927    -193.770     130.384
  H      340.691    -191.404     131.306
  H      342.363    -191.966     131.103
  P      344.202    -193.542     127.801
  C      343.929    -195.801     126.511
  O      343.896    -194.393     126.470
  O      345.357    -194.351     128.556
  O      344.477    -192.088     127.609
  H      345.014    -195.141     129.013
  H      343.563    -196.186     127.469
  H      344.958    -196.144     126.356
  H      343.301    -196.191     125.706
  H      340.573    -187.615     132.225
  H      340.130    -188.705     130.932
  H      341.037    -187.254     130.579

 3  4  5  6  7  8  9  10  11  12  13  23  28  29  30  31  32 0
 6-311+G(2d,p)
 ****
 33  34 0
 6-311+G(2d,p)
 ****
 1  2  14  15  16  17  18  19  20  21  22  24  25  26 0
 3-21G
 ****
 27  35  36  37  38  39  40  41  42  43  44  45 0
 3-21G
 ****


