%nproc=1
%NoSave
%Mem=1900MB
#P OB98/GEN NMR

erre ene a

0 1
  C     -491.340     636.644      65.515
  O     -490.943     635.318      65.865
  P     -490.275     634.390      64.739
  C     -489.327     631.988      64.545
  O     -489.875     632.982      65.407
  C     -488.456     630.999      65.332
  O     -487.313     631.705      65.892
  C     -489.159     630.327      66.530
  O     -489.881     629.116      66.303
  C     -487.974     629.979      67.407
  O     -487.395     628.725      66.975
  C     -486.980     631.112      67.158
  N     -485.906     632.093      72.075
  C     -485.754     630.982      71.324
  N     -486.066     630.805      70.016
  C     -486.574     631.935      69.487
  C     -486.784     633.146      70.134
  C     -486.420     633.204      71.493
  N     -486.586     634.338      72.260
  N     -487.319     634.072      69.267
  C     -487.450     633.425      68.121
  N     -487.005     632.133      68.203
  O     -489.215     635.035      63.916
  O     -491.530     633.990      63.834
  H     -488.084     628.049      67.074
  H     -491.257     633.956      62.899
  H     -485.337     630.115      71.834
  H     -487.873     633.851      67.216
  H     -485.940     630.754      67.097
  H     -488.255     629.835      68.462
  H     -489.805     631.049      67.051
  H     -488.083     630.219      64.649
  H     -488.728     632.475      63.763
  H     -486.351     634.279      73.247
  H     -487.020     635.156      71.865
  H     -490.170     631.511      64.027
  P     -491.437     628.982      66.679
  C     -493.225     628.185      64.955
  O     -492.028     627.899      65.654
  O     -492.190     630.266      66.742
  O     -491.389     628.172      68.074
  H     -491.084     627.263      67.992
  H     -493.349     627.429      64.160
  H     -493.193     629.172      64.495
  H     -494.090     628.097      65.635
  H     -491.764     637.127      66.370
  H     -492.067     636.603      64.731
  H     -490.486     637.196      65.181

 3  4  5  6  7  8  9  10  11  12  22  25  29  30  31  32 0
 6-311+G(2d,p)
 ****
 33  36  37 0
 6-311+G(2d,p)
 ****
 1  2  13  14  15  16  17  18  19  20  21  23  24  26 0
 3-21G
 ****
 27  28  34  35  38  39  40  41  42  43  44  45  46  47  48 0
 3-21G
 ****


