%nproc=1
%NoSave
%Mem=1900MB
#P OB98/GEN NMR

erre ene a

0 1
  C       55.603     -74.947    -318.660
  O       55.401     -76.362    -318.607
  P       54.295     -76.986    -319.585
  C       55.905     -78.507    -320.957
  O       55.004     -77.402    -320.959
  C       56.701     -78.538    -322.263
  O       57.398     -77.297    -322.480
  C       57.778     -79.609    -322.280
  O       57.213     -80.882    -322.527
  C       58.696     -79.117    -323.392
  O       58.306     -79.640    -324.674
  C       58.509     -77.583    -323.347
  N       59.710     -76.882    -322.915
  C       60.800     -76.948    -323.787
  O       60.720     -77.589    -324.837
  N       61.961     -76.307    -323.432
  C       62.030     -75.680    -322.300
  N       63.209     -75.070    -322.001
  C       60.909     -75.612    -321.340
  C       59.788     -76.232    -321.707
  O       53.408     -75.719    -319.995
  O       53.464     -78.056    -318.953
  H       58.992     -79.330    -325.303
  H       52.481     -75.983    -320.132
  H       61.018     -75.086    -320.404
  H       58.916     -76.234    -321.065
  H       58.238     -77.202    -324.340
  H       59.730     -79.431    -323.225
  H       58.321     -79.609    -321.326
  H       55.999     -78.700    -323.094
  H       63.956     -75.139    -322.680
  H       55.355     -79.439    -320.832
  H       63.374     -74.562    -321.144
  H       56.572     -78.415    -320.092
  P       56.756     -81.751    -321.262
  C       54.296     -81.531    -321.965
  O       55.254     -81.281    -320.956
  O       57.567     -81.058    -320.067
  O       56.994     -83.222    -321.322
  H       57.449     -81.564    -319.243
  H       53.299     -81.361    -321.554
  H       54.362     -82.567    -322.311
  H       54.454     -80.847    -322.804
  H       56.364     -74.669    -317.961
  H       54.690     -74.447    -318.412
  H       55.906     -74.667    -319.647

 3  4  5  6  7  8  9  10  11  12  13  21  23  27  28  29  30  32 0
 6-311+G(2d,p)
 ****
 34  35 0
 6-311+G(2d,p)
 ****
 1  2  14  15  16  17  18  19  20  22  24  25  26 0
 3-21G
 ****
 31  33  36  37  38  39  40  41  42  43  44  45  46 0
 3-21G
 ****


