%nproc=1
%NoSave
%Mem=1900MB
#P OB98/GEN NMR

erre ene a

0 1
  C      252.230    -271.467     975.746
  O      253.247    -272.010     974.930
  H      252.440    -270.420     975.962
  H      251.277    -271.533     975.212
  H      252.149    -272.032     976.677
  P      254.739    -271.978     975.520
  C      254.863    -274.557     975.761
  O      254.919    -273.298     976.417
  C      254.941    -275.689     976.787
  O      254.085    -275.342     977.913
  C      254.504    -277.063     976.259
  O      255.567    -278.013     976.416
  C      253.357    -277.476     977.175
  O      253.386    -278.859     977.530
  C      253.533    -276.575     978.392
  N      250.039    -278.700     981.441
  C      251.342    -278.993     981.236
  N      252.250    -278.319     980.495
  C      251.695    -277.227     979.940
  C      250.386    -276.789     980.074
  C      249.532    -277.592     980.849
  N      248.189    -277.329     981.007
  N      250.182    -275.628     979.346
  C      251.333    -275.395     978.749
  N      252.273    -276.344     979.066
  O      254.680    -270.794     976.598
  O      255.815    -271.753     974.510
  H      253.480    -279.359     976.695
  H      255.447    -270.201     976.476
  H      251.710    -279.882     981.739
  H      251.529    -274.593     978.055
  H      254.240    -277.002     979.121
  H      252.410    -277.267     976.665
  H      254.183    -277.035     975.213
  H      255.967    -275.735     977.167
  H      255.704    -274.653     975.068
  H      247.624    -278.016     981.485
  H      247.780    -276.562     980.483
  H      253.930    -274.619     975.187
  P      256.712    -278.003     975.286
  C      258.411    -276.682     976.760
  O      257.643    -276.726     975.556
  O      255.903    -277.592     973.958
  O      257.425    -279.306     975.127
  H      256.357    -277.950     973.170
  H      258.974    -275.773     976.791
  H      259.080    -277.517     976.787
  H      257.754    -276.723     977.604

 6  7  8  9  10  11  12  13  14  15  25  28  32  33  34  35 0
 6-311+G(2d,p)
 ****
 36  39  40 0
 6-311+G(2d,p)
 ****
 1  2  3  4  5  16  17  18  19  20  21  22  23  24 0
 3-21G
 ****
 26  27  29  30  31  37  38  41  42  43  44  45  46  47  48 0
 3-21G
 ****


