%nproc=1
%NoSave
%Mem=1900MB
#P OB98/GEN NMR

erre ene a

0 1
  C      315.712     206.803    -104.608
  O      314.970     205.807    -103.930
  H      315.653     207.732    -104.033
  H      315.287     206.979    -105.599
  H      316.761     206.513    -104.698
  P      315.017     204.302    -104.480
  C      313.265     203.672    -102.693
  O      313.631     203.612    -104.067
  C      311.778     203.993    -102.568
  O      311.515     205.330    -103.047
  C      310.880     203.075    -103.386
  O      310.733     201.814    -102.764
  C      309.608     203.907    -103.451
  O      308.842     203.770    -102.245
  C      310.175     205.336    -103.588
  N      310.164     205.824    -104.967
  C      308.943     206.289    -105.451
  O      307.907     206.276    -104.792
  N      308.952     206.750    -106.739
  C      310.004     206.686    -107.607
  O      309.932     207.030    -108.783
  C      311.258     206.159    -107.050
  C      311.280     205.761    -105.777
  O      316.241     203.524    -104.131
  O      314.868     204.478    -106.067
  H      309.414     204.083    -101.517
  H      315.735     204.333    -106.491
  H      308.077     207.081    -107.112
  H      312.118     206.105    -107.703
  H      312.193     205.366    -105.350
  H      309.591     206.037    -102.975
  H      308.961     203.607    -104.276
  H      311.279     202.962    -104.400
  H      311.508     203.957    -101.503
  H      313.851     204.460    -102.208
  H      313.498     202.711    -102.222
  P      310.000     200.622    -103.539
  C      309.132     199.716    -101.295
  O      308.789     200.111    -102.620
  O      310.899     199.548    -104.054
  O      309.249     201.358    -104.745
  H      309.584     201.012    -105.594
  H      308.251     199.396    -100.779
  H      309.568     200.545    -100.777
  H      309.835     198.910    -101.334

 6  7  8  9  10  11  12  13  14  15  16  26  31  32  33  34  35 0
 6-311+G(2d,p)
 ****
 36  37 0
 6-311+G(2d,p)
 ****
 1  2  3  4  5  17  18  19  20  21  22  23  24  25 0
 3-21G
 ****
 27  28  29  30  38  39  40  41  42  43  44  45 0
 3-21G
 ****


