%nproc=1
%NoSave
%Mem=1900MB
#P OB98/GEN NMR

erre ene a

0 1
  C      325.333     514.432     209.371
  O      326.023     515.418     208.628
  H      324.307     514.347     209.004
  H      325.836     513.470     209.233
  H      325.330     514.680     210.437
  P      325.647     516.950     208.914
  C      324.255     517.146     206.733
  O      324.261     517.232     208.149
  C      322.830     516.949     206.214
  O      322.312     515.700     206.755
  C      321.856     518.074     206.603
  O      320.977     518.314     205.498
  C      321.057     517.460     207.743
  O      319.767     518.046     207.886
  C      321.023     515.994     207.329
  N      317.585     512.840     209.350
  C      317.732     513.335     208.103
  N      318.709     514.130     207.631
  C      319.642     514.352     208.580
  C      319.632     513.911     209.894
  C      318.530     513.133     210.280
  N      318.332     512.678     211.561
  N      320.734     514.396     210.570
  C      321.381     515.135     209.691
  N      320.753     515.143     208.473
  O      326.727     517.741     208.032
  O      325.684     517.367     210.346
  H      319.254     517.527     208.538
  H      327.540     517.876     208.554
  H      316.953     513.065     207.392
  H      322.272     515.709     209.888
  H      320.253     515.785     206.574
  H      321.606     517.593     208.684
  H      322.348     519.007     206.894
  H      322.869     516.835     205.124
  H      324.870     516.292     206.422
  H      317.459     512.218     211.773
  H      318.969     512.977     212.287
  H      324.689     518.061     206.313
  P      321.504     519.286     204.336
  C      320.870     521.444     205.646
  O      321.888     520.700     204.985
  O      320.178     519.607     203.500
  O      322.565     518.676     203.473
  H      320.393     519.727     202.556
  H      321.283     522.357     206.022
  H      320.478     520.868     206.458
  H      320.084     521.666     204.954

 6  7  8  9  10  11  12  13  14  15  25  28  32  33  34  35 0
 6-311+G(2d,p)
 ****
 36  39  40 0
 6-311+G(2d,p)
 ****
 1  2  3  4  5  16  17  18  19  20  21  22  23  24 0
 3-21G
 ****
 26  27  29  30  31  37  38  41  42  43  44  45  46  47 0
 3-21G
 ****
 48 0
 3-21G
 ****


