%nproc=1
%NoSave
%Mem=1900MB
#P OB98/GEN NMR

erre ene a

0 1
  C     -708.484    -246.094     790.925
  O     -708.238    -247.405     790.415
  P     -709.258    -248.571     790.808
  C     -708.418    -250.050     788.749
  O     -708.796    -249.949     790.119
  C     -707.672    -251.375     788.541
  O     -706.384    -251.350     789.184
  C     -708.423    -252.588     789.085
  O     -709.373    -253.097     788.155
  C     -707.281    -253.547     789.403
  O     -706.838    -254.178     788.189
  C     -706.228    -252.579     789.952
  N     -706.263    -252.237     791.400
  C     -705.076    -252.073     792.108
  O     -703.952    -252.175     791.616
  N     -705.205    -251.744     793.435
  C     -706.368    -251.419     794.085
  O     -706.431    -251.060     795.242
  C     -707.596    -251.461     793.245
  C     -707.478    -251.883     791.978
  O     -710.599    -248.191     790.046
  O     -709.466    -248.719     792.280
  H     -706.465    -253.473     787.630
  H     -711.306    -247.983     790.677
  H     -704.371    -251.684     793.977
  H     -708.513    -251.182     793.694
  H     -708.376    -251.920     791.345
  H     -705.224    -252.965     789.754
  H     -707.623    -254.347     790.056
  H     -708.920    -252.331     790.035
  H     -707.506    -251.497     787.462
  H     -707.783    -249.207     788.482
  H     -709.326    -249.997     788.126
  P     -710.877    -252.563     788.156
  C     -711.081    -253.076     785.652
  O     -711.613    -253.310     786.939
  O     -711.047    -251.072     788.205
  O     -711.524    -253.288     789.452
  H     -711.498    -252.661     790.244
  H     -711.578    -253.757     784.945
  H     -710.009    -253.269     785.633
  H     -711.283    -252.043     785.337
  H     -707.722    -245.428     790.578
  H     -708.475    -246.120     791.995
  H     -709.439    -245.752     790.584

 3  4  5  6  7  8  9  10  11  12  13  23  28  29  30  31  32 0
 6-311+G(2d,p)
 ****
 33  34 0
 6-311+G(2d,p)
 ****
 1  2  14  15  16  17  18  19  20  21  22  24  25  26  27 0
 3-21G
 ****
 35  36  37  38  39  40  41  42  43  44  45 0
 3-21G
 ****


