%nproc=1
%NoSave
%Mem=1900MB
#P OB98/GEN NMR

erre ene a

0 1
  C      449.883    -204.955    -198.771
  O      451.101    -205.645    -198.531
  P      451.729    -205.565    -197.055
  C      451.653    -207.990    -196.165
  O      451.020    -206.720    -196.194
  C      452.052    -208.367    -194.746
  O      453.059    -207.430    -194.272
  C      450.893    -208.346    -193.735
  O      450.977    -209.499    -192.886
  C      451.188    -207.124    -192.881
  O      450.613    -207.228    -191.584
  C      452.718    -207.132    -192.906
  N      453.458    -204.048    -188.972
  C      452.998    -205.349    -188.999
  N      452.633    -205.882    -187.810
  N      452.900    -206.064    -190.086
  C      453.334    -205.417    -191.200
  C      453.819    -204.134    -191.297
  C      453.863    -203.334    -190.093
  O      454.176    -202.144    -190.020
  N      454.173    -203.838    -192.590
  C      453.898    -204.931    -193.272
  N      453.344    -205.902    -192.478
  O      451.093    -204.213    -196.478
  O      453.215    -205.530    -196.998
  H      450.848    -206.412    -191.100
  H      451.808    -203.612    -196.190
  H      453.494    -203.538    -188.111
  H      454.059    -205.055    -194.334
  H      453.103    -207.946    -192.270
  H      450.781    -206.234    -193.372
  H      452.710    -205.399    -186.928
  H      449.900    -208.296    -194.194
  H      452.309    -206.843    -187.805
  H      452.526    -209.359    -194.764
  H      452.551    -207.958    -196.794
  H      450.966    -208.739    -196.577
  P      449.595    -210.268    -192.598
  C      449.411    -212.248    -194.284
  O      449.142    -210.887    -194.002
  O      448.559    -209.078    -192.349
  O      449.663    -211.221    -191.453
  H      447.811    -209.386    -191.804
  H      449.777    -212.784    -193.401
  H      450.161    -212.306    -195.071
  H      448.491    -212.723    -194.632
  H      449.587    -205.097    -199.790
  H      450.021    -203.911    -198.582
  H      449.123    -205.337    -198.122

 3  4  5  6  7  8  9  10  11  12  23  26  30  31  33  0
 6-311+G(2d,p)
 ****
 35  36  37  38 0
 6-311+G(2d,p)
 ****
 1  2  13  14  15  16  17  18  19  20  21  22  24  25  27  28  29 0
 3-21G
 ****
 32  34  39  40  41  42  43  44  45  46  47  48  49 0
 3-21G
 ****


