%nproc=1
%NoSave
%Mem=1900MB
#P OB98/GEN NMR

erre ene a

0 1
  C      895.722     382.098     494.251
  O      896.521     381.008     494.674
  H      895.998     383.005     494.799
  H      895.887     382.258     493.188
  H      894.666     381.878     494.411
  P      896.497     380.673     496.245
  C      898.468     382.224     496.903
  O      897.989     380.895     496.777
  C      899.931     382.231     497.335
  O      900.062     381.691     498.661
  C      900.851     381.388     496.462
  O      901.183     382.056     495.243
  C      902.051     381.235     497.380
  O      902.864     382.427     497.306
  C      901.402     381.120     498.762
  N      903.929     377.183     500.874
  C      904.331     378.431     500.506
  N      903.609     379.410     499.945
  C      902.332     379.035     499.777
  C      901.777     377.807     500.090
  C      902.629     376.845     500.661
  N      902.229     375.574     501.014
  N      900.434     377.781     499.786
  C      900.180     378.972     499.284
  N      901.293     379.770     499.247
  O      896.314     379.084     496.282
  O      895.431     381.367     497.026
  H      902.250     383.185     497.323
  H      895.756     378.844     497.048
  H      905.373     378.652     500.703
  H      899.200     379.307     498.945
  H      901.933     381.725     499.511
  H      902.694     380.390     497.117
  H      900.414     380.391     496.259
  H      900.266     383.280     497.363
  H      897.868     382.755     497.654
  H      902.833     375.011     501.594
  H      901.249     375.338     500.869
  H      898.342     382.739     495.943
  P      900.394     381.635     493.914
  C      901.628     379.367     493.609
  O      901.386     380.675     493.097
  O      900.374     382.981     493.066
  O      899.010     381.111     494.141
  H      899.609     382.980     492.438
  H      902.304     378.850     492.961
  H      900.705     378.829     493.664
  H      902.057     379.440     494.587

 6  7  8  9  10  11  12  13  14  15  25  28  32  33  34  35 0
 6-311+G(2d,p)
 ****
 36  39  40 0
 6-311+G(2d,p)
 ****
 1  2  3  4  5  16  17  18  19  20  21  22  23  24 0
 3-21G
 ****
 26  27  29  30  31  37  38  41  42  43  44  45  46  47  48 0
 3-21G
 ****


