%nproc=1
%NoSave
%Mem=1900MB
#P OB98/GEN NMR

erre ene a

0 1
  C      194.169     631.754    -457.907
  O      195.221     631.451    -457.015
  H      194.159     631.013    -458.705
  H      194.325     632.747    -458.345
  H      193.206     631.724    -457.385
  P      195.298     632.321    -455.666
  C      193.574     630.897    -454.276
  O      193.885     632.114    -454.935
  C      193.583     631.077    -452.760
  O      192.592     632.076    -452.404
  C      193.255     629.798    -451.984
  O      194.030     629.791    -450.781
  C      191.787     629.968    -451.637
  O      191.409     629.183    -450.503
  C      191.699     631.489    -451.438
  N      190.332     631.993    -451.586
  C      189.615     632.220    -450.418
  O      190.124     631.990    -449.316
  N      188.320     632.669    -450.507
  C      187.770     632.813    -451.668
  N      186.477     633.234    -451.696
  C      188.475     632.538    -452.942
  C      189.741     632.148    -452.824
  O      195.223     633.813    -456.231
  O      196.497     632.042    -454.815
  H      191.280     628.257    -450.801
  H      194.545     633.934    -456.917
  H      187.969     632.663    -453.885
  H      190.342     631.933    -453.702
  H      192.060     631.770    -450.437
  H      191.165     629.659    -452.482
  H      193.455     628.889    -452.557
  H      194.563     631.477    -452.462
  H      186.019     633.387    -450.802
  H      194.299     630.120    -454.556
  H      185.925     633.329    -452.538
  H      192.588     630.572    -454.616
  P      195.013     628.554    -450.478
  C      197.057     629.006    -452.003
  O      195.876     628.242    -451.790
  O      194.383     627.374    -449.817
  O      196.109     629.214    -449.502
  H      196.315     628.566    -448.797
  H      197.527     628.690    -452.911
  H      197.729     628.859    -451.184
  H      196.803     630.043    -452.075

 6  7  8  9  10  11  12  13  14  15  16  26  30  31  32  33  35 0
 6-311+G(2d,p)
 ****
 37  38 0
 6-311+G(2d,p)
 ****
 1  2  3  4  5  17  18  19  20  21  22  23  24  25 0
 3-21G
 ****
 27  28  29  34  36  39  40  41  42  43  44  45  46 0
 3-21G
 ****


