%nproc=1
%NoSave
%Mem=1900MB
#P OB98/GEN NMR

erre ene a

0 1
  C     -222.806     -96.186    -145.947
  O     -221.420     -96.173    -146.240
  P     -220.872     -97.292    -147.251
  C     -220.573     -98.934    -145.255
  O     -221.150     -98.701    -146.536
  C     -220.308    -100.423    -145.056
  O     -221.552    -101.140    -144.976
  C     -219.534    -101.072    -146.190
  O     -218.160    -100.755    -146.100
  C     -219.846    -102.545    -145.966
  O     -218.932    -103.131    -145.027
  C     -221.282    -102.498    -145.385
  N     -222.281    -102.983    -146.325
  C     -222.487    -104.366    -146.339
  O     -221.824    -105.096    -145.598
  N     -223.405    -104.888    -147.217
  C     -224.052    -104.095    -148.013
  N     -224.954    -104.665    -148.861
  C     -223.851    -102.632    -148.044
  C     -222.953    -102.148    -147.186
  O     -219.284     -97.128    -147.150
  O     -221.369     -97.166    -148.654
  H     -218.877    -102.501    -144.281
  H     -218.851     -97.432    -147.971
  H     -224.417    -102.017    -148.728
  H     -222.741    -101.086    -147.143
  H     -221.344    -103.114    -144.478
  H     -219.767    -103.125    -146.891
  H     -219.934    -100.751    -147.160
  H     -219.774    -100.552    -144.102
  H     -225.067    -105.670    -148.818
  H     -221.268     -98.591    -144.481
  H     -225.524    -104.131    -149.501
  H     -219.646     -98.357    -145.172
  P     -217.411    -100.293    -147.438
  C     -215.822    -102.296    -147.623
  O     -216.966    -101.656    -148.153
  O     -216.016     -99.738    -146.872
  O     -218.108     -99.289    -148.296
  H     -215.503     -99.331    -147.594
  H     -215.721    -103.278    -148.093
  H     -215.923    -102.430    -146.544
  H     -214.928    -101.707    -147.846
  H     -223.034     -95.393    -145.266
  H     -223.068     -97.124    -145.503
  H     -223.363     -96.051    -146.851

 3  4  5  6  7  8  9  10  11  12  13  21  23  27  28  29  30  32 0
 6-311+G(2d,p)
 ****
 34  35 0
 6-311+G(2d,p)
 ****
 1  2  14  15  16  17  18  19  20  22  24  25  26 0
 3-21G
 ****
 31  33  36  37  38  39  40  41  42  43  44  45  46 0
 3-21G
 ****


