%nproc=1
%NoSave
%Mem=1900MB
#P OB98/GEN NMR

erre ene a

0 1
  C       66.354     -31.719      -4.010
  O       66.664     -32.837      -4.817
  H       67.110     -31.632      -3.225
  H       65.375     -31.853      -3.542
  H       66.359     -30.804      -4.608
  P       65.693     -33.118      -6.062
  C       64.070     -34.582      -4.655
  O       64.966     -34.515      -5.758
  C       63.421     -35.963      -4.601
  O       62.499     -36.017      -3.489
  C       62.598     -36.316      -5.834
  O       63.413     -36.742      -6.911
  C       61.697     -37.414      -5.284
  O       62.355     -38.687      -5.288
  C       61.457     -36.954      -3.840
  N       56.445     -37.648      -4.451
  C       57.501     -38.468      -4.644
  N       58.810     -38.211      -4.438
  C       58.978     -36.960      -3.977
  C       58.001     -36.010      -3.739
  C       56.675     -36.395      -3.993
  N       55.604     -35.549      -3.831
  N       58.570     -34.827      -3.313
  C       59.866     -35.061      -3.285
  N       60.157     -36.338      -3.673
  O       66.719     -33.473      -7.241
  O       64.786     -31.993      -6.429
  H       61.763     -39.308      -4.821
  H       66.906     -32.671      -7.763
  H       57.263     -39.461      -5.016
  H       60.626     -34.343      -3.002
  H       61.516     -37.784      -3.126
  H       60.788     -37.516      -5.878
  H       61.976     -35.464      -6.132
  H       64.205     -36.710      -4.429
  H       63.290     -33.823      -4.776
  H       64.626     -34.381      -3.734
  H       54.681     -35.886      -4.055
  H       55.774     -34.582      -3.593
  P       63.351     -35.925      -8.287
  C       61.354     -37.276      -9.261
  O       62.712     -36.891      -9.398
  O       64.887     -35.814      -8.718
  O       62.700     -34.586      -8.188
  H       65.242     -34.935      -8.489
  H       61.081     -37.915     -10.074
  H       60.734     -36.404      -9.268
  H       61.223     -37.799      -8.337

 6  7  8  9  10  11  12  13  14  15  25  28  32  33  34  35 0
 6-311+G(2d,p)
 ****
 36  37  40 0
 6-311+G(2d,p)
 ****
 1  2  3  4  5  16  17  18  19  20  21  22  23  24 0
 3-21G
 ****
 26  27  29  30  31  38  39 41  42  43  44  45  46  47  48 0
 3-21G
 ****


