%nproc=1
%NoSave
%Mem=1900MB
#P OB98/GEN NMR

erre ene a

0 1
  C      121.803    -270.324    -174.050
  O      122.309    -269.079    -173.593
  P      123.723    -268.590    -174.174
  C      122.386    -267.154    -175.861
  O      123.448    -268.082    -175.675
  C      122.796    -266.053    -176.832
  O      121.622    -265.257    -177.161
  C      123.865    -265.092    -176.289
  O      124.836    -264.837    -177.315
  C      123.101    -263.803    -176.046
  O      123.946    -262.661    -176.103
  C      122.063    -263.883    -177.167
  N      120.049    -259.540    -178.779
  C      121.072    -260.293    -179.320
  N      121.680    -259.783    -180.414
  N      121.469    -261.440    -178.834
  C      120.748    -261.842    -177.757
  C      119.710    -261.190    -177.132
  C      119.323    -259.892    -177.647
  O      118.485    -259.138    -177.159
  N      119.221    -261.921    -176.080
  C      119.963    -263.013    -176.062
  N      120.938    -262.985    -177.028
  O      124.517    -269.964    -174.378
  O      124.480    -267.652    -173.300
  H      123.364    -261.877    -176.091
  H      125.362    -269.935    -173.888
  H      119.798    -258.658    -179.181
  H      119.859    -263.824    -175.353
  H      122.534    -263.683    -178.140
  H      122.630    -263.845    -175.057
  H      121.400    -258.925    -180.860
  H      124.370    -265.451    -175.384
  H      122.417    -260.330    -180.840
  H      123.132    -266.520    -177.767
  H      122.129    -266.704    -174.896
  H      121.512    -267.688    -176.244
  P      126.292    -264.384    -176.809
  C      126.732    -266.877    -176.203
  O      126.774    -265.525    -175.794
  O      125.981    -263.134    -175.860
  O      127.237    -264.045    -177.913
  H      126.759    -262.547    -175.803
  H      126.507    -266.982    -177.270
  H      125.958    -267.397    -175.630
  H      127.700    -267.342    -175.998
  H      120.861    -270.520    -173.582
  H      122.493    -271.103    -173.801
  H      121.673    -270.288    -175.112

 3  4  5  6  7  8  9  10  11  12  23  26  30  31  33  0
 6-311+G(2d,p)
 ****
 35  36  37  38 0
 6-311+G(2d,p)
 ****
 1  2  13  14  15  16  17  18  19  20  21  22  24  25  27  28  29 0
 3-21G
 ****
 32  34  39  40  41  42  43  44  45  46  47  48  49 0
 3-21G
 ****


