%nproc=1
%NoSave
%Mem=1900MB
#P OB98/GEN NMR

erre ene a

0 1
  C     -109.509       4.824     -41.215
  O     -108.590       5.868     -40.983
  H     -108.953       3.893     -41.353
  H     -110.079       5.032     -42.125
  H     -110.196       4.700     -40.373
  P     -109.117       7.225     -40.320
  C     -108.920       8.283     -42.666
  O     -109.714       8.144     -41.494
  C     -109.654       9.049     -43.767
  O     -110.728       8.246     -44.303
  C     -110.305      10.332     -43.247
  O     -109.452      11.460     -43.180
  C     -111.421      10.549     -44.264
  O     -110.934      11.257     -45.417
  C     -111.819       9.120     -44.642
  N     -116.928       9.051     -44.632
  C     -116.069       9.708     -45.491
  N     -116.646      10.492     -46.428
  N     -114.767       9.616     -45.419
  C     -114.331       8.874     -44.372
  C     -115.087       8.187     -43.448
  C     -116.529       8.252     -43.570
  O     -117.334       7.694     -42.830
  N     -114.293       7.541     -42.531
  C     -113.066       7.898     -42.856
  N     -113.037       8.685     -43.983
  O     -107.769       8.001     -39.927
  O     -110.007       7.053     -39.126
  H     -111.689      11.446     -46.003
  H     -107.939       8.604     -39.181
  H     -117.922       9.136     -44.751
  H     -112.168       7.594     -42.329
  H     -111.983       9.022     -45.722
  H     -112.237      11.148     -43.848
  H     -117.636      10.685     -46.448
  H     -110.762      10.158     -42.268
  H     -116.061      11.187     -46.896
  H     -108.959       9.252     -44.591
  H     -108.684       7.273     -43.008
  H     -107.972       8.773     -42.426
  P     -109.531      12.452     -41.927
  C     -111.549      13.751     -42.935
  O     -111.036      12.999     -41.856
  O     -108.687      13.718     -42.422
  O     -109.000      11.896     -40.650
  H     -107.772      13.664     -42.092
  H     -112.559      14.034     -42.724
  H     -111.523      13.159     -43.826
  H     -110.954      14.629     -43.073

 6  7  8  9  10  11  12  13  14  15  26  29  33  34 0
 6-311+G(2d,p)
 ****
 36  38  39  40  41 0
 6-311+G(2d,p)
 ****
 1  2  3  4  5  16  17  18  19  20  21  22  23  24  25 0
 3-21G
 ****
 27  28  30  31  32  35  37  42  43  44  45  46  47 0
 3-21G
 ****
 48  49 0
 3-21G
 ****


