%nproc=1
%NoSave
%Mem=1900MB
#P OB98/GEN NMR

erre ene a

0 1
  C      634.682     557.660    -733.205
  O      635.385     557.529    -734.429
  H      633.865     556.933    -733.176
  H      634.259     558.665    -733.125
  H      635.348     557.473    -732.353
  P      636.739     558.370    -734.580
  C      638.852     558.099    -736.062
  O      637.735     557.467    -735.453
  C      639.763     557.064    -736.711
  O      640.390     556.240    -735.701
  C      639.037     556.096    -737.657
  O      638.853     556.661    -738.948
  C      640.035     554.943    -737.693
  O      641.139     555.289    -738.556
  C      640.502     554.888    -736.234
  N      639.200     550.051    -735.419
  C      640.020     550.583    -736.381
  N      640.564     549.737    -737.265
  N      640.281     551.866    -736.490
  C      639.670     552.622    -735.543
  C      638.836     552.186    -734.524
  C      638.552     550.771    -734.424
  O      637.864     550.245    -733.564
  N      638.396     553.251    -733.755
  C      638.940     554.311    -734.319
  N      639.728     553.982    -735.397
  O      637.375     558.314    -733.100
  O      636.575     559.781    -735.051
  H      640.757     555.467    -739.447
  H      637.831     559.161    -732.920
  H      639.030     549.057    -735.395
  H      638.825     555.320    -733.959
  H      641.551     554.579    -736.140
  H      639.591     554.030    -738.081
  H      640.366     548.749    -737.294
  H      638.092     555.743    -737.227
  H      641.198     550.096    -737.976
  H      640.557     557.588    -737.255
  H      639.419     558.649    -735.293
  H      638.484     558.814    -736.815
  P      638.057     555.797    -740.040
  C      636.762     556.365    -742.227
  O      637.327     556.844    -741.005
  O      636.853     555.148    -739.193
  O      638.889     554.739    -740.719
  H      636.532     554.346    -739.630
  H      636.314     557.180    -742.756
  H      636.018     555.628    -742.011
  H      637.532     555.929    -742.829

 6  7  8  9  10  11  12  13  14  15  26  29  33  34 0
 6-311+G(2d,p)
 ****
 36  38  39  40  41 0
 6-311+G(2d,p)
 ****
 1  2  3  4  5  16  17  18  19  20  21  22  23  24  25 0
 3-21G
 ****
 27  28  30  31  32  35  37  42  43  44  45  46  47 0
 3-21G
 ****
 48  49 0
 3-21G
 ****


