%nproc=1
%NoSave
%Mem=1900MB
#P OB98/GEN NMR

erre ene a

0 1
  C       73.434      64.855     185.208
  O       73.287      63.590     184.585
  P       74.269      62.376     184.954
  C       76.772      61.857     184.663
  O       75.741      62.824     184.496
  C       78.147      62.487     184.452
  O       78.366      63.487     185.476
  C       79.296      61.487     184.536
  O       80.306      61.862     183.592
  C       79.856      61.675     185.934
  O       81.240      61.288     185.998
  C       79.586      63.165     186.170
  N       81.708      65.389     190.286
  C       82.132      65.276     189.009
  N       81.530      64.649     187.971
  C       80.341      64.151     188.351
  C       79.773      64.192     189.615
  C       80.515      64.847     190.617
  N       80.071      64.971     191.919
  N       78.553      63.544     189.626
  C       78.380      63.140     188.388
  N       79.427      63.490     187.575
  O       73.843      61.043     184.447
  O       74.360      62.405     186.549
  H       81.286      60.342     185.748
  H       74.387      61.495     186.906
  H       83.087      65.748     188.786
  H       77.526      62.581     188.029
  H       80.390      63.791     185.756
  H       79.299      61.049     186.641
  H       78.975      60.457     184.353
  H       78.149      63.004     183.482
  H       76.620      61.063     183.923
  H       80.611      65.560     192.535
  H       79.113      64.723     192.121
  H       76.700      61.416     185.666
  P       81.045      60.645     182.836
  C       83.165      59.334     183.594
  O       81.954      59.959     183.963
  O       81.728      61.095     181.587
  O       79.823      59.633     182.604
  H       79.109      59.776     183.262
  H       83.620      58.894     184.487
  H       83.860      60.072     183.182
  H       82.983      58.545     182.862
  H       72.691      65.526     184.832
  H       74.407      65.246     184.997
  H       73.315      64.748     186.266

 3  4  5  6  7  8  9  10  11  12  22  25  29  30  31  32 0
 6-311+G(2d,p)
 ****
 33  36  37 0
 6-311+G(2d,p)
 ****
 1  2  13  14  15  16  17  18  19  20  21  23  24  26 0
 3-21G
 ****
 27  28  34  35  38  39  40  41  42  43  44  45  46  47  48 0
 3-21G
 ****


