%nproc=1
%NoSave
%Mem=1900MB
#P OB98/GEN NMR

erre ene a

0 1
  C     1406.309    -612.109     -71.079
  O     1407.157    -611.735     -72.149
  H     1405.587    -611.301     -70.902
  H     1406.901    -612.256     -70.165
  H     1405.766    -613.029     -71.324
  P     1408.145    -612.856     -72.732
  C     1407.419    -612.613     -75.219
  O     1408.454    -612.436     -74.255
  C     1407.602    -611.602     -76.355
  O     1407.125    -610.287     -75.892
  C     1409.047    -611.435     -76.823
  O     1409.060    -611.215     -78.230
  C     1409.481    -610.149     -76.117
  O     1410.572    -609.486     -76.742
  C     1408.181    -609.343     -76.147
  N     1408.168    -608.263     -75.161
  C     1408.805    -607.082     -75.502
  O     1409.311    -606.835     -76.596
  N     1408.849    -606.123     -74.508
  C     1408.342    -606.248     -73.246
  O     1408.435    -605.366     -72.406
  C     1407.688    -607.532     -72.952
  C     1407.617    -608.469     -73.904
  O     1407.189    -614.129     -72.879
  O     1409.352    -613.139     -71.907
  H     1407.193    -614.668     -72.053
  H     1410.883    -608.784     -76.138
  H     1409.321    -605.255     -74.748
  H     1407.286    -607.674     -71.950
  H     1407.160    -609.423     -73.709
  H     1408.010    -608.935     -77.150
  H     1409.763    -610.368     -75.086
  H     1409.700    -612.275     -76.570
  H     1406.949    -611.895     -77.196
  H     1406.446    -612.441     -74.735
  H     1407.457    -613.631     -75.609
  P     1410.454    -611.420     -79.006
  C     1409.428    -613.022     -80.795
  O     1410.045    -611.771     -80.509
  O     1410.948    -612.807     -78.376
  O     1411.392    -610.270     -78.829
  H     1410.215    -613.409     -78.189
  H     1409.224    -613.088     -81.843
  H     1408.512    -613.101     -80.248
  H     1410.084    -613.817     -80.509

 6  7  8  9  10  11  12  13  14  15  16  27  31  32  33  34  35 0
 6-311+G(2d,p)
 ****
 36  37 0
 6-311+G(2d,p)
 ****
 1  2  3  4  5  17  18  19  20  21  22  23  24  25 0
 3-21G
 ****
 26  28  29  30  38  39  40  41  42  43  44  45 0
 3-21G
 ****


