%nproc=1
%NoSave
%Mem=1900MB
#P OB98/GEN NMR

erre ene a

0 1
  C      295.165    -331.260     410.468
  O      294.385    -332.088     411.336
  P      294.613    -331.905     412.906
  C      292.886    -332.433     414.781
  O      293.647    -332.924     413.691
  C      291.908    -333.511     415.266
  O      290.850    -333.739     414.300
  C      292.558    -334.873     415.482
  O      293.324    -334.886     416.670
  C      291.334    -335.771     415.503
  O      290.685    -335.717     416.788
  C      290.431    -335.122     414.435
  N      287.727    -337.586     410.844
  C      287.389    -337.047     412.036
  N      288.156    -336.411     412.941
  C      289.426    -336.340     412.502
  C      289.936    -336.842     411.314
  C      289.031    -337.498     410.465
  N      289.395    -338.051     409.264
  N      291.290    -336.579     411.212
  C      291.595    -335.953     412.339
  N      290.498    -335.777     413.141
  O      293.969    -330.471     413.210
  O      296.058    -331.970     413.318
  H      290.010    -336.439     416.800
  H      294.681    -329.818     413.387
  H      286.330    -337.142     412.307
  H      292.587    -335.615     412.619
  H      289.377    -335.106     414.742
  H      291.565    -336.827     415.302
  H      293.201    -335.126     414.620
  H      291.451    -333.161     416.197
  H      292.329    -331.540     414.483
  H      288.699    -338.576     408.748
  H      290.374    -338.067     409.006
  H      293.577    -332.135     415.578
  P      294.918    -334.997     416.535
  C      296.744    -334.251     418.186
  O      295.448    -334.807     418.041
  O      295.290    -333.593     415.853
  O      295.408    -336.211     415.824
  H      294.821    -332.854     416.293
  H      296.963    -334.151     419.258
  H      296.786    -333.264     417.719
  H      297.491    -334.919     417.741
  H      294.919    -331.479     409.450
  H      296.205    -331.451     410.633
  H      294.954    -330.231     410.672

 3  4  5  6  7  8  9  10  11  12  22  25  29  30  31  32 0
 6-311+G(2d,p)
 ****
 33  36  37 0
 6-311+G(2d,p)
 ****
 1  2  13  14  15  16  17  18  19  20  21  23  24  26 0
 3-21G
 ****
 27  28  34  35  38  39  40  41  42  43  44  45  46  47  48 0
 3-21G
 ****


