%nproc=1
%NoSave
%Mem=1900MB
#P OB98/GEN NMR

erre ene a

0 1
  C     -240.070      62.797      97.343
  O     -241.237      63.058      98.121
  P     -241.314      62.462      99.606
  C     -242.554      60.273      98.993
  O     -241.360      60.861      99.512
  C     -242.551      58.754      99.217
  O     -242.300      58.488     100.621
  C     -243.881      58.055      98.889
  O     -244.089      57.587      97.562
  C     -243.779      56.809      99.775
  O     -243.002      55.799      99.117
  C     -243.031      57.304     101.010
  N     -245.795      55.291     104.820
  C     -245.015      54.721     103.876
  N     -244.314      55.330     102.898
  C     -244.465      56.661     102.956
  C     -245.221      57.379     103.872
  C     -245.915      56.642     104.837
  N     -246.722      57.219     105.796
  N     -245.132      58.742     103.617
  C     -244.348      58.825     102.559
  N     -243.908      57.612     102.126
  O     -242.339      63.078     100.508
  O     -239.830      62.730     100.168
  H     -243.594      55.378      98.459
  H     -239.885      62.973     101.106
  H     -244.946      53.638     103.906
  H     -244.082      59.756     102.069
  H     -242.298      56.572     101.374
  H     -244.765      56.365      99.981
  H     -244.727      58.665      99.206
  H     -241.736      58.299      98.630
  H     -242.624      60.490      97.924
  H     -247.219      56.604     106.429
  H     -246.860      58.212     105.789
  H     -243.394      60.771      99.475
  P     -245.322      58.110      96.679
  C     -247.091      56.413      97.616
  O     -246.640      57.752      97.524
  O     -245.343      57.623      95.264
  O     -245.215      59.690      96.835
  H     -245.408      60.031      97.731
  H     -247.851      56.350      98.398
  H     -246.261      55.740      97.876
  H     -247.528      56.111      96.666
  H     -240.171      63.259      96.383
  H     -239.952      61.741      97.220
  H     -239.212      63.196      97.842

 3  4  5  6  7  8  9  10  11  12  22  25  29  30  31  32 0
 6-311+G(2d,p)
 ****
 33  36  37 0
 6-311+G(2d,p)
 ****
 1  2  13  14  15  16  17  18  19  20  21  23  24  26 0
 3-21G
 ****
 27  28  34  35  38  39  40  41  42  43  44  45  46  47  48 0
 3-21G
 ****


