%nproc=1
%NoSave
%Mem=1900MB
#P OB98/GEN NMR

erre ene a

0 1
  C      -43.615     -50.292      49.168
  O      -42.829     -49.339      48.441
  P      -41.564     -49.876      47.618
  C      -41.696     -48.259      45.583
  O      -40.977     -48.672      46.736
  C      -41.169     -46.914      45.076
  O      -41.404     -45.854      46.025
  C      -39.670     -46.901      44.820
  O      -39.351     -47.461      43.555
  C      -39.382     -45.408      44.824
  O      -39.747     -44.837      43.551
  C      -40.324     -44.899      45.921
  N      -39.082     -41.641      49.673
  C      -39.687     -41.454      48.480
  N      -39.967     -42.368      47.527
  C      -39.567     -43.590      47.911
  C      -38.937     -43.935      49.095
  C      -38.692     -42.894      50.005
  N      -38.077     -43.092      51.220
  N      -38.668     -45.287      49.131
  C      -39.143     -45.753      47.994
  N      -39.688     -44.765      47.219
  O      -42.227     -50.841      46.526
  O      -40.562     -50.602      48.453
  H      -39.194     -45.272      42.876
  H      -41.632     -51.592      46.345
  H      -39.987     -40.433      48.260
  H      -39.118     -46.791      47.691
  H      -40.765     -43.926      45.674
  H      -38.324     -45.184      44.980
  H      -39.127     -47.391      45.639
  H      -41.703     -46.670      44.147
  H      -42.762     -48.182      45.813
  H      -37.960     -42.302      51.832
  H      -37.805     -44.029      51.482
  H      -41.604     -49.031      44.813
  P      -38.202     -48.580      43.515
  C      -39.678     -49.870      41.811
  O      -38.400     -49.355      42.128
  O      -38.686     -49.630      44.622
  O      -36.831     -48.065      43.792
  H      -37.914     -50.068      45.028
  H      -39.713     -50.084      40.740
  H      -40.464     -49.150      42.050
  H      -39.849     -50.798      42.363
  H      -44.418     -49.788      49.663
  H      -43.000     -50.782      49.894
  H      -44.013     -51.017      48.490

 3  4  5  6  7  8  9  10  11  12  22  25  29  30  31  32 0
 6-311+G(2d,p)
 ****
 33  36  37 0
 6-311+G(2d,p)
 ****
 1  2  13  14  15  16  17  18  19  20  21  23  24  26 0
 3-21G
 ****
 27  28  34  35  38  39  40  41  42  43  44  45  46  47  48 0
 3-21G
 ****


