%nproc=1
%NoSave
%Mem=1900MB
#P OB98/GEN NMR

erre ene a

0 1
  C       67.287    -479.426     594.192
  O       65.946    -479.345     593.768
  H       67.910    -479.700     593.342
  H       67.388    -480.196     594.968
  H       67.622    -478.465     594.582
  P       64.846    -478.926     594.867
  C       63.511    -480.961     593.937
  O       63.475    -479.606     594.355
  C       62.617    -481.165     592.710
  O       61.231    -481.001     593.104
  C       62.902    -480.185     591.572
  O       62.874    -480.893     590.322
  C       61.761    -479.193     591.642
  O       61.503    -478.576     590.379
  C       60.618    -480.049     592.206
  N       59.614    -479.235     592.903
  C       58.410    -479.021     592.224
  O       58.227    -479.497     591.101
  N       57.450    -478.240     592.815
  C       57.704    -477.659     593.947
  N       56.719    -476.873     594.477
  C       58.984    -477.821     594.673
  C       59.881    -478.614     594.095
  O       64.629    -477.374     594.578
  O       65.212    -479.244     596.277
  H       61.394    -479.291     589.705
  H       64.132    -476.936     595.311
  H       59.152    -477.297     595.607
  H       60.845    -478.783     594.563
  H       60.123    -480.617     591.402
  H       62.011    -478.395     592.359
  H       63.863    -479.688     591.678
  H       62.709    -482.215     592.377
  H       55.858    -476.786     593.938
  H       63.169    -481.602     594.765
  H       56.817    -476.351     595.339
  H       64.548    -481.234     593.683
  P       64.321    -481.358     589.751
  C       65.334    -479.270     588.591
  O       64.614    -480.480     588.441
  O       64.052    -482.830     589.200
  O       65.396    -481.323     590.787
  H       64.350    -483.502     589.841
  H       65.448    -478.802     587.635
  H       66.299    -479.478     589.004
  H       64.799    -478.615     589.247

 6  7  8  9  10  11  12  13  14  15  16  26  30  31  32  33  35 0
 6-311+G(2d,p)
 ****
 37  38 0
 6-311+G(2d,p)
 ****
 1  2  3  4  5  17  18  19  20  21  22  23  24  25 0
 3-21G
 ****
 27  28  29  34  36  39  40  41  42  43  44  45  46 0
 3-21G
 ****


