%nproc=1
%NoSave
%Mem=1900MB
#P OB98/GEN NMR

erre ene a

0 1
  C     -899.067     441.068    1407.191
  O     -897.837     440.376    1407.052
  H     -899.707     440.801    1406.345
  H     -898.897     442.140    1407.180
  H     -899.567     440.774    1408.115
  P     -896.777     440.441    1408.247
  C     -895.767     438.075    1408.503
  O     -896.767     438.991    1408.941
  C     -896.387     436.989    1407.614
  O     -896.917     437.605    1406.410
  C     -895.397     435.900    1407.170
  O     -896.137     434.687    1407.005
  C     -894.937     436.456    1405.831
  O     -894.217     435.513    1405.068
  C     -896.307     436.923    1405.287
  N     -896.237     437.810    1404.128
  C     -896.857     437.374    1402.952
  O     -897.447     436.300    1402.834
  N     -896.767     438.225    1401.885
  C     -896.157     439.449    1401.888
  O     -896.137     440.178    1400.895
  C     -895.517     439.839    1403.140
  C     -895.587     439.027    1404.185
  O     -896.927     441.581    1409.197
  O     -895.357     440.484    1407.500
  H     -895.017     441.396    1407.500
  H     -894.007     435.901    1404.201
  H     -897.207     437.927    1401.024
  H     -895.007     440.803    1403.152
  H     -895.127     439.299    1405.136
  H     -896.927     436.067    1405.045
  H     -894.257     437.300    1405.991
  H     -894.587     435.727    1407.890
  H     -897.247     436.545    1408.142
  H     -895.327     437.618    1409.391
  H     -894.997     438.617    1407.946
  P     -896.567     433.730    1408.223
  C     -899.157     433.710    1408.325
  O     -897.957     434.287    1408.832
  O     -895.497     433.554    1409.250
  O     -896.957     432.334    1407.553
  H     -896.837     431.611    1408.200
  H     -900.000     434.161    1408.805
  H     -899.156     432.658    1408.519
  H     -899.215     433.878    1407.270

 6  7  8  9  10  11  12  13  14  15  16  27  31  32  33  34  35 0
 6-311+G(2d,p)
 ****
 36  37 0
 6-311+G(2d,p)
 ****
 1  2  3  4  5  17  18  19  20  21  22  23  24  25 0
 3-21G
 ****
 26  28  29  30  38  39  40  41  42  43  44  45 0
 3-21G
 ****


