%nproc=1
%NoSave
%Mem=1900MB
#P OB98/GEN NMR

erre ene a

0 1
  C     1460.310     308.475     707.013
  O     1459.318     307.476     707.193
  P     1458.157     307.258     706.136
  C     1458.877     304.829     705.398
  O     1458.650     306.182     705.064
  C     1457.713     303.971     704.845
  O     1457.509     304.238     703.446
  C     1457.985     302.481     705.019
  O     1457.398     301.993     706.231
  C     1457.357     301.875     703.757
  O     1455.939     301.753     703.928
  C     1457.673     302.982     702.716
  N     1459.010     303.008     702.079
  C     1459.396     301.942     701.263
  O     1458.684     300.980     701.020
  N     1460.707     302.005     700.793
  C     1461.585     303.035     700.993
  O     1462.780     302.958     700.748
  C     1461.031     304.242     701.624
  C     1459.785     304.147     702.166
  O     1458.157     308.617     705.313
  O     1456.804     306.929     706.693
  H     1455.786     301.163     704.667
  H     1457.440     309.219     705.621
  H     1461.026     301.171     700.303
  H     1461.642     305.122     701.665
  H     1459.376     305.018     702.649
  H     1456.923     302.981     701.908
  H     1457.763     300.890     703.568
  H     1459.074     302.276     705.000
  H     1456.800     304.245     705.380
  H     1458.933     304.731     706.478
  H     1459.828     304.473     704.966
  P     1457.795     300.544     706.757
  C     1459.295     301.042     708.801
  O     1459.287     300.705     707.394
  O     1457.639     299.426     705.792
  O     1456.828     300.354     708.039
  H     1456.060     299.835     707.788
  H     1460.364     300.954     709.123
  H     1458.670     300.376     709.365
  H     1458.980     302.088     708.909
  H     1460.993     308.452     707.836
  H     1459.843     309.436     706.964
  H     1460.842     308.290     706.103

 3  4  5  6  7  8  9  10  11  12  13  23  28  29  30  31  32 0
 6-311+G(2d,p)
 ****
 33  34 0
 6-311+G(2d,p)
 ****
 1  2  14  15  16  17  18  19  20  21  22  24  25  26  27 0
 3-21G
 ****
 35  36  37  38  39  40  41  42  43  44  45 0
 3-21G
 ****


