%nproc=1
%NoSave
%Mem=1900MB
#P OB98/GEN NMR

erre ene a

0 1
  C     -208.266      10.345     395.026
  O     -206.922       9.958     394.865
  H     -208.828      10.054     394.135
  H     -208.331      11.430     395.137
  H     -208.716       9.853     395.895
  P     -205.935      10.007     396.128
  C     -204.819      11.875     397.519
  O     -205.660      11.561     396.415
  C     -204.586      13.385     397.590
  O     -203.647      13.753     396.534
  C     -205.871      14.215     397.381
  O     -205.782      15.403     398.184
  C     -205.763      14.574     395.911
  O     -206.562      15.680     395.576
  C     -204.258      14.807     395.775
  N     -203.846      14.805     394.374
  C     -204.154      15.937     393.623
  O     -204.760      16.908     394.074
  N     -203.814      15.891     392.299
  C     -203.303      14.808     391.643
  O     -203.084      14.795     390.441
  C     -203.040      13.621     392.478
  C     -203.313      13.675     393.786
  O     -204.704       9.162     396.035
  O     -206.863       9.596     397.368
  H     -206.296      16.035     394.707
  H     -206.316       9.278     398.110
  H     -204.020      16.706     391.742
  H     -202.651      12.735     391.989
  H     -203.152      12.816     394.425
  H     -203.968      15.761     396.235
  H     -206.087      13.727     395.294
  H     -206.781      13.669     397.625
  H     -204.112      13.635     398.545
  H     -203.866      11.356     397.384
  H     -205.291      11.523     398.447
  P     -207.014      15.911     399.079
  C     -208.940      17.612     399.015
  O     -207.770      17.138     398.358
  O     -206.659      16.180     400.506
  O     -208.080      14.719     398.995
  H     -208.422      14.534     399.893
  H     -209.360      18.422     398.455
  H     -208.685      17.952     399.997
  H     -209.655      16.819     399.087

 6  7  8  9  10  11  12  13  14  15  16  26  31  32  33  34  35 0
 6-311+G(2d,p)
 ****
 36  37 0
 6-311+G(2d,p)
 ****
 1  2  3  4  5  17  18  19  20  21  22  23  24  25 0
 3-21G
 ****
 27  28  29  30  38  39  40  41  42  43  44  45 0
 3-21G
 ****


