%nproc=1
%NoSave
%Mem=1900MB
#P OB98/GEN NMR

erre ene a

0 1
  C       46.940    -267.707    -304.475
  O       47.871    -266.799    -305.025
  H       46.305    -267.176    -303.757
  H       47.481    -268.498    -303.945
  H       46.310    -268.144    -305.250
  P       48.629    -267.246    -306.367
  C       49.066    -265.511    -308.246
  O       49.378    -265.937    -306.930
  C       48.786    -264.006    -308.263
  O       47.547    -263.756    -307.540
  C       49.888    -263.155    -307.615
  O       50.021    -261.929    -308.354
  C       49.302    -262.829    -306.252
  O       49.871    -261.657    -305.685
  C       47.827    -262.697    -306.607
  N       46.221    -260.051    -302.651
  C       46.903    -259.649    -303.782
  N       47.261    -258.351    -303.855
  N       47.201    -260.453    -304.771
  C       46.759    -261.719    -304.584
  C       46.090    -262.245    -303.506
  C       45.773    -261.349    -302.412
  O       45.198    -261.650    -301.374
  N       45.873    -263.593    -303.667
  C       46.441    -263.881    -304.827
  N       46.992    -262.777    -305.420
  O       47.424    -267.465    -307.398
  O       49.484    -268.463    -306.242
  H       49.273    -261.331    -304.987
  H       47.164    -268.406    -307.408
  H       46.028    -259.391    -301.915
  H       46.495    -264.870    -305.267
  H       47.593    -261.736    -307.093
  H       49.473    -263.666    -305.569
  H       47.039    -257.658    -303.157
  H       50.860    -263.658    -307.557
  H       47.720    -258.027    -304.699
  H       48.618    -263.699    -309.308
  H       48.172    -266.044    -308.590
  H       49.894    -265.748    -308.914
  P       50.979    -261.918    -309.638
  C       49.952    -259.985    -311.041
  O       51.028    -260.430    -310.231
  O       50.122    -262.720    -310.731
  O       52.310    -262.564    -309.406
  H       50.722    -263.238    -311.308
  H       50.135    -258.979    -311.355
  H       49.043    -260.023    -310.479
  H       49.867    -260.617    -311.900

 6  7  8  9  10  11  12  13  14  15  26  29  33  34 0
 6-311+G(2d,p)
 ****
 36  38  39  40  41 0
 6-311+G(2d,p)
 ****
 1  2  3  4  5  16  17  18  19  20  21  22  23  24  25 0
 3-21G
 ****
 27  28  30  31  32  35  37  42  43  44  45  46  47 0
 3-21G
 ****
 48  49 0
 3-21G
 ****


