%nproc=1
%NoSave
%Mem=1900MB
#P OB98/GEN NMR

erre ene a

0 1
  C       17.171     281.432    -910.093
  O       17.775     280.914    -908.906
  P       19.355     281.164    -908.699
  C       19.681     278.888    -907.463
  O       19.849     280.295    -907.435
  C       19.350     278.358    -906.070
  O       20.393     278.677    -905.102
  C       18.072     278.944    -905.468
  O       16.923     278.267    -905.964
  C       18.278     278.651    -903.998
  O       17.942     277.279    -903.721
  C       19.784     278.878    -903.813
  N       19.007     282.306    -900.086
  C       18.506     281.059    -900.304
  N       18.743     280.227    -901.330
  C       19.630     280.758    -902.180
  C       20.226     282.011    -902.088
  C       19.890     282.795    -900.985
  N       20.438     284.046    -900.771
  N       21.066     282.215    -903.166
  C       20.993     281.107    -903.886
  N       20.119     280.202    -903.333
  O       19.411     282.678    -908.159
  O       20.170     280.997    -909.935
  H       17.002     277.152    -903.954
  H       20.213     283.107    -908.490
  H       17.790     280.699    -899.541
  H       21.534     280.915    -904.798
  H       20.216     278.149    -903.124
  H       17.649     279.261    -903.353
  H       18.020     280.023    -905.647
  H       19.274     277.254    -906.135
  H       20.594     278.412    -907.843
  H       20.144     284.545    -899.925
  H       21.098     284.416    -901.430
  H       18.891     278.637    -908.175
  P       16.313     278.790    -907.354
  C       13.836     278.674    -906.555
  O       14.833     278.187    -907.433
  O       17.141     277.942    -908.450
  O       16.430     280.260    -907.587
  H       17.222     278.459    -909.276
  H       12.854     278.392    -906.941
  H       13.890     279.774    -906.478
  H       13.977     278.244    -905.564
  H       16.128     281.193    -910.096
  H       17.639     280.996    -910.951
  H       17.293     282.495    -910.121

 3  4  5  6  7  8  9  10  11  12  22  25  29  30  31  32 0
 6-311+G(2d,p)
 ****
 33  36  37 0
 6-311+G(2d,p)
 ****
 1  2  13  14  15  16  17  18  19  20  21  23  24  26 0
 3-21G
 ****
 27  28  34  35  38  39  40  41  42  43  44  45  46  47  48 0
 3-21G
 ****


