%nproc=1
%NoSave
%Mem=1900MB
#P OB98/GEN NMR

erre ene a

0 1
  C      528.401    -956.765     319.270
  O      527.012    -956.969     319.494
  P      526.204    -958.298     319.083
  C      524.902    -957.392     316.981
  O      525.916    -958.247     317.509
  C      524.756    -957.602     315.463
  O      524.291    -958.966     315.201
  C      523.718    -956.653     314.836
  O      524.122    -956.129     313.569
  C      522.439    -957.498     314.851
  O      521.453    -957.026     313.949
  C      522.964    -958.893     314.604
  N      519.086    -962.049     313.657
  C      519.562    -961.016     312.877
  N      518.931    -960.785     311.707
  N      520.591    -960.273     313.220
  C      521.077    -960.568     314.453
  C      520.659    -961.574     315.328
  C      519.569    -962.425     314.896
  O      519.122    -963.364     315.533
  N      521.423    -961.555     316.491
  C      522.261    -960.580     316.333
  N      522.109    -959.959     315.090
  O      525.058    -958.641     319.969
  O      527.312    -959.473     319.209
  H      520.693    -957.644     313.989
  H      526.817    -960.259     319.484
  H      518.304    -962.640     313.318
  H      523.007    -960.276     317.049
  H      523.097    -959.093     313.521
  H      522.010    -957.432     315.855
  H      518.068    -961.232     311.456
  H      523.572    -955.755     315.466
  H      519.139    -959.907     311.260
  H      525.703    -957.514     314.975
  H      525.234    -956.364     317.170
  H      523.959    -957.548     317.492
  P      524.383    -954.575     313.184
  C      521.846    -954.290     312.741
  O      523.028    -953.770     313.388
  O      524.568    -954.587     311.603
  O      525.576    -953.971     313.865
  H      525.458    -954.270     311.372
  H      521.092    -953.538     312.736
  H      521.498    -955.152     313.287
  H      522.103    -954.559     311.723
  H      528.684    -955.801     319.637
  H      528.605    -956.821     318.221
  H      528.960    -957.520     319.783

 3  4  5  6  7  8  9  10  11  12  23  26  30  31 0
 6-311+G(2d,p)
 ****
 33  35  36  37  38 0
 6-311+G(2d,p)
 ****
 1  2  13  14  15  16  17  18  19  20  21  22  24  25 0
 3-21G
 ****
 27  28  29  32  34  39  40  41  42  43  44  45  46  47  48  49 0
 3-21G
 ****


