%nproc=1
%NoSave
%Mem=1900MB
#P OB98/GEN NMR

erre ene a

0 1
  C     1441.760    -295.804     198.175
  O     1440.714    -296.754     198.273
  P     1439.686    -297.019     197.049
  C     1438.378    -295.417     195.528
  O     1439.005    -295.574     196.793
  C     1438.070    -293.951     195.273
  O     1439.269    -293.183     195.581
  C     1437.702    -293.563     193.864
  O     1436.340    -293.735     193.525
  C     1438.034    -292.077     193.856
  O     1436.974    -291.342     194.497
  C     1439.291    -292.012     194.691
  N     1443.287    -289.245     193.092
  C     1442.258    -288.954     193.906
  N     1441.222    -289.743     194.292
  C     1441.329    -290.970     193.735
  C     1442.331    -291.396     192.869
  C     1443.357    -290.481     192.564
  N     1444.407    -290.793     191.731
  N     1442.104    -292.724     192.511
  C     1441.011    -293.057     193.133
  N     1440.502    -292.043     193.899
  O     1438.758    -298.154     197.270
  O     1440.647    -297.204     195.771
  H     1436.191    -291.445     193.938
  H     1440.121    -297.611     195.052
  H     1442.248    -287.957     194.329
  H     1440.528    -294.043     193.095
  H     1439.322    -291.138     195.368
  H     1438.137    -291.650     192.846
  H     1438.352    -294.058     193.105
  H     1437.296    -293.633     195.995
  H     1437.435    -295.967     195.556
  H     1445.160    -290.105     191.648
  H     1444.535    -291.763     191.459
  H     1438.996    -295.833     194.738
  P     1435.933    -293.715     191.968
  C     1436.513    -291.874     190.196
  O     1436.092    -292.193     191.503
  O     1434.628    -294.342     191.636
  O     1437.180    -294.441     191.259
  H     1438.032    -293.950     191.324
  H     1436.370    -290.791     190.040
  H     1435.873    -292.390     189.474
  H     1437.535    -292.121     190.045
  H     1442.315    -295.789     199.090
  H     1441.345    -294.834     197.994
  H     1442.410    -296.071     197.368

 3  4  5  6  7  8  9  10  11  12  22  25  29  30  31  32 0
 6-311+G(2d,p)
 ****
 33  36  37 0
 6-311+G(2d,p)
 ****
 1  2  13  14  15  16  17  18  19  20  21  23  24  26 0
 3-21G
 ****
 27  28  34  35  38  39  40  41  42  43  44  45  46  47  48 0
 3-21G
 ****


