%nproc=1
%NoSave
%Mem=1900MB
#P OB98/GEN NMR

erre ene a

0 1
  C     -176.000     289.095     -78.696
  O     -175.858     290.502     -78.774
  H     -176.989     288.820     -79.068
  H     -175.905     288.763     -77.659
  H     -175.241     288.607     -79.320
  P     -174.453     291.107     -78.297
  C     -175.371     292.130     -76.103
  O     -174.854     292.378     -77.403
  C     -176.299     293.263     -75.671
  O     -175.542     294.457     -75.401
  C     -177.342     293.657     -76.712
  O     -178.446     292.767     -76.689
  C     -177.724     295.044     -76.222
  O     -178.649     294.934     -75.123
  C     -176.377     295.603     -75.718
  N     -176.276     300.180     -78.046
  C     -177.217     299.584     -77.284
  N     -177.197     298.347     -76.734
  C     -176.050     297.712     -77.036
  C     -175.000     298.198     -77.805
  C     -175.135     299.501     -78.311
  N     -174.169     300.117     -79.082
  N     -173.994     297.259     -77.904
  C     -174.405     296.250     -77.166
  N     -175.663     296.456     -76.651
  O     -173.448     291.342     -79.375
  O     -174.018     290.034     -77.189
  H     -178.335     294.213     -74.544
  H     -174.792     289.740     -76.677
  H     -178.108     300.178     -77.087
  H     -173.832     295.350     -76.960
  H     -176.500     296.187     -74.798
  H     -178.216     295.638     -76.995
  H     -176.895     293.740     -77.711
  H     -176.782     292.967     -74.731
  H     -174.561     292.016     -75.379
  H     -174.420     300.978     -79.544
  H     -173.378     299.559     -79.381
  H     -175.927     291.184     -76.148
  P     -178.563     291.585     -77.760
  C     -180.774     292.270     -78.888
  O     -180.137     291.356     -78.012
  O     -177.802     290.349     -77.432
  O     -178.072     292.237     -79.140
  H     -177.558     291.594     -79.659
  H     -181.810     292.017     -78.975
  H     -180.312     292.221     -79.852
  H     -180.681     293.262     -78.498

 6  7  8  9  10  11  12  13  14  15  25  28  32  33  34  35 0
 6-311+G(2d,p)
 ****
 36  39  40 0
 6-311+G(2d,p)
 ****
 1  2  3  4  5  16  17  18  19  20  21  22  23  24 0
 3-21G
 ****
 26  27  29  30  31  37  38  41  42  43  44  45  46  47 0
 3-21G
 ****
 48 0
 3-21G
 ****


