%nproc=1
%NoSave
%Mem=1900MB
#P OB98/GEN NMR

erre ene a

0 1
  C     -220.774      60.538    -146.411
  O     -221.689      61.562    -146.811
  P     -223.245      61.172    -146.790
  C     -223.303      61.165    -149.386
  O     -223.595      60.462    -148.186
  C     -224.107      60.597    -150.556
  O     -225.516      60.524    -150.269
  C     -223.981      61.422    -151.830
  O     -222.761      61.123    -152.484
  C     -225.206      60.971    -152.613
  O     -224.947      59.747    -153.333
  C     -226.245      60.729    -151.507
  N     -230.703      62.602    -153.033
  C     -229.956      61.560    -153.549
  N     -230.483      60.909    -154.605
  N     -228.797      61.191    -153.070
  C     -228.393      61.928    -152.009
  C     -229.056      62.964    -151.390
  C     -230.333      63.367    -151.933
  O     -231.045      64.268    -151.499
  N     -228.358      63.430    -150.305
  C     -227.220      62.760    -150.348
  N     -227.217      61.792    -151.323
  O     -223.982      62.590    -146.879
  O     -223.652      60.415    -145.568
  H     -224.502      59.116    -152.741
  H     -224.414      62.791    -146.027
  H     -231.583      62.850    -153.446
  H     -226.384      62.918    -149.685
  H     -226.826      59.816    -151.692
  H     -225.507      61.707    -153.361
  H     -231.371      61.140    -155.024
  H     -224.058      62.490    -151.597
  H     -229.956      60.139    -154.995
  H     -223.746      59.576    -150.740
  H     -222.235      61.100    -149.603
  H     -223.530      62.226    -149.234
  P     -221.649      62.277    -152.557
  C     -221.895      62.662    -155.113
  O     -222.003      63.205    -153.813
  O     -220.335      61.483    -153.022
  O     -221.418      62.997    -151.271
  H     -219.572      61.783    -152.491
  H     -222.619      63.158    -155.764
  H     -222.091      61.586    -155.120
  H     -220.889      62.846    -155.497
  H     -219.773      60.913    -146.465
  H     -220.875      59.695    -147.062
  H     -220.989      60.240    -145.406

 3  4  5  6  7  8  9  10  11  12  23  26  30  31 0
 6-311+G(2d,p)
 ****
 33  35  36  37  38 0
 6-311+G(2d,p)
 ****
 1  2  13  14  15  16  17  18  19  20  21  22  24  25 0
 3-21G
 ****
 27  28  29  32  34  39  40  41  42  43  44  45  46  47  48  49 0
 3-21G
 ****


