%nproc=1
%NoSave
%Mem=1900MB
#P OB98/GEN NMR

erre ene a

0 1
  C       91.667     128.053     609.306
  O       93.003     128.202     608.853
  H       91.193     127.256     608.731
  H       91.110     128.980     609.140
  H       91.644     127.784     610.369
  P       93.976     129.212     609.638
  C       96.169     128.109     608.835
  O       95.344     129.268     608.813
  C       97.385     128.315     607.934
  O       98.057     129.553     608.270
  C       98.436     127.224     608.068
  O       98.046     126.052     607.394
  C       99.647     127.928     607.477
  O       99.621     127.885     606.037
  C       99.457     129.369     607.990
  N      100.278     129.672     609.167
  C      101.590     130.065     608.913
  O      102.074     130.142     607.788
  N      102.341     130.354     610.028
  C      101.956     130.181     611.327
  O      102.699     130.369     612.281
  C      100.568     129.729     611.525
  C       99.806     129.501     610.457
  O       94.128     128.955     611.101
  O       93.328     130.650     609.361
  H       99.294     126.994     605.799
  H       92.865     130.957     610.161
  H      103.297     130.632     609.873
  H      100.224     129.593     612.535
  H       98.780     129.175     610.579
  H       99.717     130.091     607.203
  H      100.589     127.464     607.792
  H       98.632     127.020     609.127
  H       97.030     128.392     606.893
  H       95.582     127.254     608.474
  H       96.477     127.912     609.874
  P       98.546     124.617     607.920
  C       96.912     123.278     606.461
  O       98.270     123.544     606.751
  O       98.045     124.230     609.272
  O      100.147     124.749     607.918
  H      100.482     124.621     608.825
  H       96.850     122.556     605.674
  H       96.429     124.182     606.154
  H       96.429     122.895     607.336

 6  7  8  9  10  11  12  13  14  15  16  26  31  32  33  34  35 0
 6-311+G(2d,p)
 ****
 36  37 0
 6-311+G(2d,p)
 ****
 1  2  3  4  5  17  18  19  20  21  22  23  24  25 0
 3-21G
 ****
 27  28  29  30  38  39  40  41  42  43  44  45 0
 3-21G
 ****


