%nproc=1
%NoSave
%Mem=1900MB
#P OB98/GEN NMR

erre ene a

0 1
  C     -351.916    -898.880     388.244
  O     -351.241    -897.660     388.434
  H     -352.333    -899.230     389.198
  H     -352.742    -898.730     387.543
  H     -351.240    -899.640     387.839
  P     -349.827    -897.700     389.190
  C     -348.985    -895.690     387.790
  O     -348.758    -897.040     388.191
  C     -347.953    -895.280     386.728
  O     -346.627    -895.350     387.332
  C     -347.945    -896.160     385.477
  O     -347.726    -895.320     384.325
  C     -346.735    -897.050     385.677
  O     -346.186    -897.530     384.445
  C     -345.799    -896.110     386.431
  N     -341.115    -898.090     386.069
  C     -341.777    -897.170     385.309
  N     -343.011    -896.660     385.520
  C     -343.545    -897.130     386.647
  C     -342.989    -898.070     387.528
  C     -341.725    -898.580     387.172
  N     -341.077    -899.550     387.883
  N     -343.875    -898.330     388.550
  C     -344.945    -897.610     388.295
  N     -344.783    -896.870     387.160
  O     -349.461    -899.270     389.141
  O     -349.819    -897.180     390.584
  H     -346.013    -896.760     383.859
  H     -349.850    -899.720     389.913
  H     -341.251    -896.810     384.435
  H     -345.866    -897.600     388.872
  H     -345.266    -895.410     385.763
  H     -347.008    -897.920     386.284
  H     -348.874    -896.740     385.332
  H     -348.135    -894.230     386.473
  H     -348.883    -895.040     388.661
  H     -340.223    -899.920     387.505
  H     -341.573    -900.000     388.651
  H     -349.993    -895.590     387.388
  P     -348.831    -895.340     383.169
  C     -349.349    -893.000     384.213
  O     -349.770    -894.050     383.341
  O     -349.792    -896.550     383.604
  O     -348.280    -895.540     381.798
  H     -350.151    -897.000     382.812
  H     -350.083    -892.221     384.214
  H     -348.413    -892.608     383.873
  H     -349.236    -893.384     385.205

 6  7  8  9  10  11  12  13  14  15  25  28  32  33  34  35 0
 6-311+G(2d,p)
 ****
 36  39  40 0
 6-311+G(2d,p)
 ****
 1  2  3  4  5  16  17  18  19  20  21  22  23  24 0
 3-21G
 ****
 26  27  29  30  31  37  38  41  42  43  44  45  46  47 0
 3-21G
 ****
 48 0
 3-21G
 ****


