%nproc=1
%NoSave
%Mem=1900MB
#P OB98/GEN NMR

erre ene a

0 1
  C      589.761    -779.054    -573.566
  O      589.939    -780.443    -573.370
  H      589.086    -778.674    -572.795
  H      589.314    -778.855    -574.544
  H      590.718    -778.535    -573.481
  P      590.765    -781.269    -574.465
  C      592.948    -780.968    -573.110
  O      592.024    -781.882    -573.690
  C      593.657    -781.611    -571.927
  O      592.745    -781.772    -570.816
  C      594.184    -783.012    -572.231
  O      595.356    -782.947    -573.008
  C      594.361    -783.566    -570.827
  O      595.573    -783.092    -570.232
  C      593.125    -782.973    -570.112
  N      592.009    -783.915    -570.032
  C      591.948    -784.702    -568.882
  O      592.787    -784.579    -567.991
  N      590.932    -785.627    -568.778
  C      590.059    -785.740    -569.720
  N      589.083    -786.675    -569.558
  C      590.085    -784.927    -570.951
  C      591.079    -784.045    -571.045
  O      591.113    -780.542    -575.733
  O      589.848    -782.555    -574.744
  H      595.565    -782.119    -570.355
  H      589.215    -782.371    -575.464
  H      589.332    -785.051    -571.718
  H      591.171    -783.400    -571.916
  H      593.382    -782.664    -569.082
  H      594.389    -784.654    -570.834
  H      593.415    -783.606    -572.743
  H      594.469    -780.948    -571.600
  H      589.107    -787.218    -568.704
  H      592.374    -780.092    -572.775
  H      588.305    -786.792    -570.186
  H      593.685    -780.634    -573.855
  P      595.884    -784.238    -573.806
  C      594.902    -783.145    -575.936
  O      596.049    -783.765    -575.333
  O      595.086    -785.474    -573.594
  O      597.412    -784.365    -573.314
  H      597.457    -784.718    -572.383
  H      595.132    -782.875    -576.946
  H      594.639    -782.267    -575.383
  H      594.081    -783.831    -575.928

 6  7  8  9  10  11  12  13  14  15  16  26  30  31  32  33  35 0
 6-311+G(2d,p)
 ****
 37  38 0
 6-311+G(2d,p)
 ****
 1  2  3  4  5  17  18  19  20  21  22  23  24  25 0
 3-21G
 ****
 27  28  29  34  36  39  40  41  42  43  44  45  46 0
 3-21G
 ****


