%nproc=1
%NoSave
%Mem=1900MB
#P OB98/GEN NMR

erre ene a

0 1
  C     -190.337     153.421      18.379
  O     -189.805     152.273      19.016
  P     -189.677     152.210      20.610
  C     -188.148     153.196      22.416
  O     -188.343     153.008      21.020
  C     -186.946     154.094      22.696
  O     -187.151     155.381      22.052
  C     -186.677     154.369      24.184
  O     -185.256     154.472      24.342
  C     -187.316     155.732      24.398
  O     -186.814     156.409      25.541
  C     -186.982     156.397      23.061
  N     -188.365     161.097      24.544
  C     -187.514     160.197      25.087
  N     -187.221     158.955      24.643
  C     -187.906     158.669      23.525
  C     -188.833     159.473      22.879
  C     -189.046     160.748      23.426
  N     -189.886     161.691      22.871
  N     -189.375     158.807      21.790
  C     -188.783     157.628      21.788
  N     -187.838     157.526      22.779
  O     -189.791     150.843      21.205
  O     -190.848     153.166      21.136
  H     -187.108     157.339      25.506
  H     -191.574     152.628      21.502
  H     -186.992     160.520      25.985
  H     -188.994     156.822      21.100
  H     -185.942     156.743      23.030
  H     -188.403     155.617      24.517
  H     -187.081     153.605      24.863
  H     -186.060     153.639      22.229
  H     -187.981     152.213      22.871
  H     -189.864     162.623      23.269
  H     -190.191     161.573      21.905
  H     -189.055     153.632      22.862
  P     -184.553     153.924      25.670
  C     -184.637     154.595      28.141
  O     -185.336     154.573      26.908
  O     -183.062     154.069      25.712
  O     -184.997     152.382      25.721
  H     -184.411     151.892      26.319
  H     -184.706     153.612      28.621
  H     -185.099     155.343      28.797
  H     -183.580     154.853      27.993
  H     -190.340     153.272      17.319
  H     -189.735     154.273      18.617
  H     -191.338     153.586      18.719

 3  4  5  6  7  8  9  10  11  12  22  25  29  30  31  32 0
 6-311+G(2d,p)
 ****
 33  36  37 0
 6-311+G(2d,p)
 ****
 1  2  13  14  15  16  17  18  19  20  21  23  24  26 0
 3-21G
 ****
 27  28  34  35  38  39  40  41  42  43  44  45  46  47  48 0
 3-21G
 ****


