%nproc=1
%NoSave
%Mem=1900MB
#P OB98/GEN NMR

erre ene a

0 1
  C        8.409     281.258      12.578
  O        7.435     282.130      12.041
  H        8.237     281.160      13.652
  H        9.413     281.661      12.416
  H        8.324     280.271      12.114
  P        7.545     282.453      10.474
  C        8.948     284.585      10.839
  O        8.929     283.257      10.328
  C        9.717     285.508       9.893
  O       10.093     286.706      10.623
  C       11.002     284.884       9.337
  O       11.194     285.329       7.994
  C       12.085     285.480      10.220
  O       13.363     285.466       9.594
  C       11.515     286.871      10.491
  N       11.332     290.917      13.574
  C       10.547     290.526      12.550
  N       10.654     289.414      11.793
  C       11.669     288.642      12.226
  C       12.554     288.908      13.254
  C       12.362     290.119      13.943
  N       13.178     290.546      14.965
  N       13.486     287.895      13.361
  C       13.164     287.027      12.419
  N       12.082     287.450      11.695
  O        6.357     283.119       9.867
  O        7.914     281.020       9.865
  H       13.266     285.812       8.681
  H        8.620     280.584      10.379
  H        9.729     291.196      12.297
  H       13.685     286.098      12.213
  H       11.710     287.574       9.668
  H       12.162     284.906      11.151
  H       10.999     283.795       9.370
  H        9.046     285.825       9.086
  H        9.419     284.601      11.828
  H       12.966     291.426      15.406
  H       13.948     289.963      15.261
  H        7.910     284.921      10.941
  P       10.295     284.699       6.826
  C       11.678     282.608       6.231
  O       10.490     283.104       6.832
  O       10.424     285.347       5.490
  O        8.806     284.862       7.402
  H        8.215     285.150       6.679
  H       11.692     281.540       6.297
  H       12.529     283.008       6.741
  H       11.707     282.902       5.203

 6  7  8  9  10  11  12  13  14  15  25  28  32  33  34  35 0
 6-311+G(2d,p)
 ****
 36  39  40 0
 6-311+G(2d,p)
 ****
 1  2  3  4  5  16  17  18  19  20  21  22  23  24 0
 3-21G
 ****
 26  27  29  30  31  37  38  41  42  43  44  45  46  47 0
 3-21G
 ****
 48 0
 3-21G
 ****


