%nproc=1
%NoSave
%Mem=1900MB
#P OB98/GEN NMR

erre ene a

0 1
  C      -31.622      10.942      21.290
  O      -32.165       9.718      20.841
  H      -30.559      10.966      21.035
  H      -31.721      11.024      22.375
  H      -32.117      11.788      20.807
  P      -33.744       9.478      20.971
  C      -35.786      10.386      19.689
  O      -34.461      10.644      20.135
  C      -36.694      11.557      20.054
  O      -36.800      11.680      21.489
  C      -36.189      12.907      19.558
  O      -36.413      13.049      18.170
  C      -36.992      13.846      20.445
  O      -38.334      13.998      19.955
  C      -36.989      13.081      21.789
  N      -35.965      13.565      22.716
  C      -36.408      13.938      23.980
  O      -37.586      13.879      24.326
  N      -35.450      14.429      24.827
  C      -34.145      14.662      24.504
  O      -33.377      15.303      25.215
  C      -33.718      14.179      23.182
  C      -34.636      13.675      22.355
  O      -34.258       9.287      22.358
  O      -34.002       8.181      20.066
  H      -34.087       7.398      20.643
  H      -38.790      13.153      20.134
  H      -35.769      14.747      25.730
  H      -32.675      14.287      22.912
  H      -34.350      13.341      21.364
  H      -37.965      13.171      22.283
  H      -36.556      14.845      20.495
  H      -35.126      13.021      19.794
  H      -37.696      11.348      19.658
  H      -36.148       9.477      20.180
  H      -35.775      10.225      18.606
  P      -35.435      13.928      17.260
  C      -33.024      13.746      16.412
  O      -33.953      13.337      17.407
  O      -35.536      15.404      17.464
  O      -35.833      13.533      15.759
  H      -36.026      14.347      15.254
  H      -32.073      13.296      16.605
  H      -32.925      14.811      16.433
  H      -33.375      13.439      15.449

 6  7  8  9  10  11  12  13  14  15  16  27  31  32  33  34  35 0
 6-311+G(2d,p)
 ****
 36  37 0
 6-311+G(2d,p)
 ****
 1  2  3  4  5  17  18  19  20  21  22  23  24  25 0
 3-21G
 ****
 26  28  29  30  38  39  40  41  42  43  44  45 0
 3-21G
 ****


