%nproc=1
%NoSave
%Mem=1900MB
#P OB98/GEN NMR

erre ene a

0 1
  C     -201.319     717.116     -97.077
  O     -201.391     717.394     -98.459
  H     -202.230     717.487     -96.594
  H     -200.461     717.627     -96.637
  H     -201.245     716.039     -96.897
  P     -200.236     716.792     -99.395
  C     -199.539     718.838    -100.846
  O     -200.285     717.617    -100.768
  C     -199.363     719.253    -102.309
  O     -198.518     718.279    -102.979
  C     -200.682     719.348    -103.088
  O     -200.599     720.472    -103.984
  C     -200.717     718.071    -103.899
  O     -201.516     718.176    -105.085
  C     -199.222     717.819    -104.153
  N     -198.963     716.407    -104.429
  C     -198.445     716.098    -105.691
  O     -198.253     716.992    -106.525
  N     -198.224     714.785    -106.011
  C     -198.557     713.845    -105.174
  N     -198.348     712.562    -105.562
  C     -199.158     714.129    -103.844
  C     -199.328     715.419    -103.547
  O     -200.804     715.356     -99.815
  O     -198.881     716.709     -98.767
  H     -202.411     718.485    -104.824
  H     -200.082     714.709     -99.947
  H     -199.456     713.317    -103.193
  H     -199.767     715.727    -102.594
  H     -198.875     718.414    -105.012
  H     -201.132     717.255    -103.284
  H     -201.556     719.462    -102.444
  H     -198.822     720.219    -102.327
  H     -197.941     712.399    -106.474
  H     -198.554     718.665    -100.403
  H     -198.614     711.753    -105.003
  H     -200.059     719.611    -100.281
  P     -200.091     721.856    -103.340
  C     -201.730     723.459    -104.583
  O     -200.388     723.018    -104.398
  O     -198.496     721.708    -103.347
  O     -200.622     722.109    -101.963
  H     -198.173     721.582    -102.428
  H     -201.752     724.234    -105.320
  H     -202.112     723.836    -103.657
  H     -202.333     722.638    -104.911

 6  7  8  9  10  11  12  13  14  15  16  26  30  31  32  33  35 0
 6-311+G(2d,p)
 ****
 37  38 0
 6-311+G(2d,p)
 ****
 1  2  3  4  5  17  18  19  20  21  22  23  24  25 0
 3-21G
 ****
 27  28  29  34  36  39  40  41  42  43  44  45  46 0
 3-21G
 ****


