%nproc=1
%NoSave
%Mem=1900MB
#P OB98/GEN NMR

erre ene a

0 1
  C     -601.321      19.738     479.746
  O     -602.179      19.453     478.653
  H     -600.293      19.789     479.378
  H     -601.385      18.947     480.497
  H     -601.581      20.699     480.198
  P     -603.752      19.325     478.944
  C     -603.977      19.338     476.366
  O     -604.403      18.752     477.591
  C     -604.209      18.375     475.208
  O     -603.229      17.322     475.226
  C     -605.582      17.693     475.239
  O     -606.570      18.561     474.712
  C     -605.302      16.487     474.357
  O     -605.296      16.886     472.970
  C     -603.885      16.090     474.810
  N     -605.493      11.587     476.498
  C     -605.798      12.260     475.327
  N     -606.697      11.665     474.511
  N     -605.292      13.421     475.001
  C     -604.461      13.925     475.942
  C     -604.099      13.359     477.149
  C     -604.634      12.050     477.478
  O     -604.370      11.416     478.495
  N     -603.286      14.203     477.875
  C     -603.142      15.254     477.094
  N     -603.843      15.148     475.918
  O     -604.433      20.554     479.463
  O     -603.865      18.090     479.959
  H     -604.834      16.182     472.478
  H     -603.850      18.398     480.888
  H     -605.936      10.701     476.698
  H     -602.531      16.123     477.327
  H     -603.301      15.664     473.993
  H     -606.048      15.698     474.463
  H     -607.316      10.935     474.844
  H     -605.836      17.342     476.245
  H     -606.972      12.160     473.675
  H     -604.073      18.932     474.274
  H     -602.909      19.569     476.467
  H     -604.526      20.272     476.182
  P     -607.727      19.159     475.652
  C     -609.210      19.245     473.536
  O     -609.105      18.829     474.887
  O     -607.544      20.599     476.031
  O     -607.788      18.170     476.909
  H     -607.164      18.423     477.632
  H     -610.168      18.966     473.150
  H     -608.442      18.776     472.958
  H     -609.099      20.308     473.480

 6  7  8  9  10  11  12  13  14  15  26  29  33  34 0
 6-311+G(2d,p)
 ****
 36  38  39  40  41 0
 6-311+G(2d,p)
 ****
 1  2  3  4  5  16  17  18  19  20  21  22  23  24  25 0
 3-21G
 ****
 27  28  30  31  32  35  37  42  43  44  45  46  47 0
 3-21G
 ****
 48  49 0
 3-21G
 ****


