%nproc=1
%NoSave
%Mem=1900MB
#P OB98/GEN NMR

erre ene a

0 1
  C     1019.674     223.356    -294.901
  O     1020.877     223.071    -294.198
  P     1020.807     223.077    -292.595
  C     1020.575     220.485    -292.400
  O     1019.979     221.766    -292.190
  C     1021.140     219.939    -291.095
  O     1020.103     219.851    -290.108
  C     1021.716     218.544    -291.210
  O     1022.993     218.580    -291.822
  C     1021.734     218.104    -289.758
  O     1022.945     218.519    -289.103
  C     1020.500     218.822    -289.168
  N     1019.409     217.917    -288.867
  C     1018.613     218.272    -287.770
  O     1018.871     219.280    -287.131
  N     1017.577     217.435    -287.421
  C     1017.367     216.343    -288.100
  N     1016.321     215.571    -287.710
  C     1018.199     215.934    -289.241
  C     1019.196     216.746    -289.569
  O     1019.810     224.279    -292.278
  O     1022.138     223.241    -291.917
  H     1023.677     218.112    -289.614
  H     1019.992     224.657    -291.393
  H     1017.976     215.023    -289.779
  H     1019.861     216.525    -290.397
  H     1020.781     219.343    -288.242
  H     1021.696     217.009    -289.663
  H     1021.038     217.895    -291.785
  H     1021.903     220.643    -290.730
  H     1015.777     215.873    -286.916
  H     1021.384     220.596    -293.132
  H     1016.058     214.721    -288.194
  H     1019.815     219.818    -292.809
  P     1023.326     217.473    -292.930
  C     1022.663     219.023    -294.880
  O     1022.355     217.837    -294.172
  O     1022.618     216.166    -292.334
  O     1024.758     217.249    -293.263
  H     1022.838     215.401    -292.887
  H     1022.039     219.064    -295.780
  H     1023.711     219.024    -295.183
  H     1022.454     219.901    -294.256
  H     1019.859     223.320    -295.954
  H     1019.327     224.332    -294.633
  H     1018.930     222.631    -294.644

 3  4  5  6  7  8  9  10  11  12  13  21  23  27  28  29  30  32 0
 6-311+G(2d,p)
 ****
 34  35 0
 6-311+G(2d,p)
 ****
 1  2  14  15  16  17  18  19  20  22  24  25  26 0
 3-21G
 ****
 31  33  36  37  38  39  40  41  42  43  44  45  46 0
 3-21G
 ****


