%nproc=1
%NoSave
%Mem=1900MB
#P OB98/GEN NMR

erre ene a

0 1
  C       11.150      67.699      35.104
  O       11.241      69.029      35.575
  H       10.547      67.691      34.192
  H       10.671      67.053      35.845
  H       12.147      67.316      34.866
  P       11.858      69.272      37.039
  C       12.229      71.342      38.541
  O       11.858      70.866      37.247
  C       13.220      72.504      38.434
  O       14.399      72.087      37.714
  C       12.683      73.698      37.660
  O       11.652      74.400      38.323
  C       13.958      74.430      37.265
  O       14.431      75.327      38.265
  C       14.960      73.262      37.092
  N       15.295      73.029      35.693
  C       15.984      74.058      35.058
  O       16.286      75.118      35.610
  N       16.285      73.849      33.740
  C       15.926      72.760      33.001
  O       16.189      72.650      31.809
  C       15.172      71.716      33.719
  C       14.897      71.896      35.014
  O       13.187      68.627      37.301
  O       10.699      68.780      38.026
  H       15.318      75.627      37.986
  H       11.048      68.628      38.937
  H       16.793      74.579      33.265
  H       14.871      70.838      33.165
  H       14.343      71.141      35.568
  H       15.892      73.481      37.630
  H       13.815      75.017      36.353
  H       12.242      73.327      36.726
  H       13.524      72.793      39.447
  H       12.703      70.512      39.076
  H       11.334      71.652      39.089
  P       10.421      75.079      37.562
  C        7.857      75.288      37.936
  O        9.064      74.624      38.296
  O       10.466      75.066      36.067
  O       10.565      76.616      38.036
  H       10.277      77.178      37.291
  H        7.044      74.882      38.502
  H        7.670      75.147      36.892
  H        7.949      76.334      38.144

 6  7  8  9  10  11  12  13  14  15  16  26  31  32  33  34  35 0
 6-311+G(2d,p)
 ****
 36  37 0
 6-311+G(2d,p)
 ****
 1  2  3  4  5  17  18  19  20  21  22  23  24  25 0
 3-21G
 ****
 27  28  29  30  38  39  40  41  42  43  44  45 0
 3-21G
 ****


