%nproc=1
%NoSave
%Mem=1900MB
#P OB98/GEN NMR

erre ene a

0 1
  C     -242.422     -53.846    -768.097
  O     -243.163     -52.933    -768.885
  H     -242.207     -54.735    -768.697
  H     -242.995     -54.157    -767.220
  H     -241.477     -53.396    -767.782
  P     -243.738     -51.614    -768.178
  C     -243.514     -50.424    -770.465
  O     -244.356     -50.729    -769.361
  C     -244.241     -49.498    -771.439
  O     -245.494     -50.088    -771.844
  C     -244.593     -48.146    -770.838
  O     -243.444     -47.316    -770.765
  C     -245.676     -47.679    -771.789
  O     -245.121     -47.145    -772.998
  C     -246.435     -49.001    -772.060
  N     -247.621     -49.150    -771.233
  C     -248.803     -48.589    -771.727
  O     -248.798     -48.001    -772.819
  N     -249.939     -48.682    -770.970
  C     -249.921     -49.297    -769.833
  N     -251.081     -49.353    -769.135
  C     -248.705     -49.925    -769.272
  C     -247.599     -49.817    -770.019
  O     -242.805     -50.871    -767.271
  O     -245.036     -52.143    -767.402
  H     -245.822     -46.609    -773.405
  H     -244.801     -52.429    -766.495
  H     -248.731     -50.434    -768.328
  H     -246.659     -50.250    -769.687
  H     -246.738     -49.059    -773.118
  H     -246.297     -46.906    -771.339
  H     -245.036     -48.276    -769.852
  H     -243.615     -49.384    -772.339
  H     -251.894     -48.901    -769.553
  H     -243.265     -51.370    -770.951
  H     -251.206     -49.882    -768.286
  H     -242.586     -49.954    -770.126
  P     -243.086     -46.550    -769.401
  C     -240.560     -46.927    -769.803
  O     -241.600     -45.962    -769.631
  O     -243.284     -47.334    -768.153
  O     -243.995     -45.227    -769.477
  H     -244.942     -45.439    -769.290
  H     -239.627     -46.424    -769.946
  H     -240.774     -47.533    -770.659
  H     -240.501     -47.547    -768.933

 6  7  8  9  10  11  12  13  14  15  16  26  30  31  32  33  35 0
 6-311+G(2d,p)
 ****
 37  38 0
 6-311+G(2d,p)
 ****
 1  2  3  4  5  17  18  19  20  21  22  23  24  25 0
 3-21G
 ****
 27  28  29  34  36  39  40  41  42  43  44  45  46 0
 3-21G
 ****


