%nproc=1
%NoSave
%Mem=1900MB
#P OB98/GEN NMR

erre ene a

0 1
  C       67.453     -97.639     273.139
  O       68.549     -97.574     272.250
  P       69.919     -98.338     272.567
  C       71.061     -96.134     271.935
  O       71.108     -97.550     271.837
  C       72.014     -95.474     270.938
  O       73.383     -95.784     271.304
  C       71.804     -95.916     269.485
  O       72.008     -94.766     268.656
  C       72.912     -96.929     269.270
  O       73.231     -97.102     267.898
  C       74.025     -96.318     270.130
  N       75.053     -97.286     270.479
  C       75.975     -97.616     269.485
  O       75.822     -97.198     268.335
  N       77.035     -98.423     269.815
  C       77.061     -98.998     270.978
  N       78.163     -99.734     271.291
  C       75.969     -98.867     271.962
  C       75.029     -97.973     271.671
  O       69.899     -99.808     272.306
  O       70.188     -98.038     274.119
  H       70.326     -98.883     274.588
  H       72.566     -97.698     267.493
  H       75.974     -99.463     272.863
  H       74.199     -97.783     272.342
  H       74.496     -95.476     269.607
  H       72.606     -97.901     269.675
  H       70.803     -96.319     269.303
  H       71.894     -94.387     271.021
  H       78.908     -99.768     270.607
  H       71.356     -95.852     272.949
  H       78.414     -99.947     272.254
  H       70.036     -95.783     271.777
  P       70.923     -94.446     267.515
  C       72.623     -94.353     265.558
  O       71.670     -93.662     266.335
  O       70.065     -93.276     268.205
  O       70.020     -95.569     267.120
  H       69.172     -93.266     267.816
  H       73.074     -93.651     264.853
  H       72.144     -95.156     264.992
  H       73.412     -94.767     266.193
  H       66.640     -97.064     272.746
  H       67.742     -97.244     274.091
  H       67.147     -98.658     273.254

 3  4  5  6  7  8  9  10  11  12  13  24  27  28  29  30  32 0
 6-311+G(2d,p)
 ****
 34  35 0
 6-311+G(2d,p)
 ****
 1  2  14  15  16  17  18  19  20  21  22  23  25  26 0
 3-21G
 ****
 31  33  36  37  38  39  40  41  42  43  44  45  46 0
 3-21G
 ****


