%nproc=1
%NoSave
%Mem=1900MB
#P OB98/GEN NMR

erre ene a

0 1
  C     -109.380    -256.418     184.908
  O     -110.299    -257.009     185.825
  P     -111.623    -256.199     186.231
  C     -113.132    -258.282     186.146
  O     -112.651    -257.210     186.946
  C     -113.968    -259.283     186.954
  O     -113.115    -260.241     187.638
  C     -114.875    -258.640     188.017
  O     -116.076    -259.415     188.072
  C     -114.065    -258.819     189.287
  O     -114.850    -258.688     190.461
  C     -113.467    -260.210     189.038
  N     -112.321    -260.486     189.890
  C     -112.360    -261.655     190.651
  O     -113.375    -262.349     190.668
  N     -111.249    -261.987     191.404
  C     -110.266    -261.147     191.497
  N     -109.180    -261.516     192.228
  C     -110.269    -259.818     190.842
  C     -111.309    -259.571     190.044
  O     -112.219    -255.362     185.149
  O     -111.123    -255.285     187.455
  H     -115.206    -257.773     190.507
  H     -111.599    -254.435     187.424
  H     -109.470    -259.118     191.017
  H     -111.402    -258.630     189.520
  H     -114.218    -260.995     189.204
  H     -113.268    -258.063     189.326
  H     -115.131    -257.599     187.800
  H     -114.592    -259.854     186.242
  H     -109.197    -262.420     192.690
  H     -112.284    -258.802     185.693
  H     -108.352    -260.939     192.306
  H     -113.711    -257.869     185.307
  P     -117.288    -259.049     187.078
  C     -117.401    -261.228     185.665
  O     -118.005    -260.415     186.646
  O     -116.497    -258.654     185.732
  O     -118.171    -257.919     187.506
  H     -117.054    -258.053     185.208
  H     -117.858    -262.221     185.695
  H     -116.327    -261.336     185.839
  H     -117.573    -260.797     184.668
  H     -108.559    -257.085     184.747
  H     -109.017    -255.496     185.311
  H     -109.875    -256.230     183.978

 3  4  5  6  7  8  9  10  11  12  13  23  27  28  29  30  32 0
 6-311+G(2d,p)
 ****
 34  35 0
 6-311+G(2d,p)
 ****
 1  2  14  15  16  17  18  19  20  21  22  24  25  26 0
 3-21G
 ****
 31  33  36  37  38  39  40  41  42  43  44  45  46 0
 3-21G
 ****


