%nproc=1
%NoSave
%Mem=1900MB
#P OB98/GEN NMR

erre ene a

0 1
  C     -167.701     166.955     171.415
  O     -168.395     168.177     171.599
  P     -169.761     168.402     170.792
  C     -168.765     170.312     169.343
  O     -169.392     169.038     169.365
  C     -168.699     170.862     167.916
  O     -168.117     172.194     167.935
  C     -167.848     170.010     166.970
  O     -168.410     170.064     165.648
  C     -166.524     170.743     166.927
  O     -165.795     170.440     165.738
  C     -166.995     172.192     167.031
  N     -162.320     173.910     166.182
  C     -163.165     173.216     165.340
  N     -162.658     172.856     164.141
  N     -164.396     172.905     165.644
  C     -164.765     173.323     166.880
  C     -164.021     174.033     167.797
  C     -162.655     174.357     167.451
  O     -161.847     174.945     168.163
  N     -164.746     174.304     168.928
  C     -165.914     173.727     168.717
  N     -165.960     173.086     167.504
  O     -170.444     169.620     171.579
  O     -170.664     167.216     170.752
  H     -165.079     171.101     165.669
  H     -171.183     169.287     172.122
  H     -161.373     174.115     165.905
  H     -166.744     173.719     169.413
  H     -167.348     172.571     166.064
  H     -165.908     170.455     167.786
  H     -161.696     173.006     163.872
  H     -167.740     168.962     167.274
  H     -163.242     172.308     163.522
  H     -169.721     170.964     167.533
  H     -167.751     170.217     169.735
  H     -169.318     171.003     169.987
  P     -168.947     168.670     165.055
  C     -166.819     168.058     163.691
  O     -167.648     167.774     164.800
  O     -169.435     169.062     163.583
  O     -170.030     168.037     165.866
  H     -170.123     168.441     163.277
  H     -165.829     168.353     164.054
  H     -167.220     168.859     163.065
  H     -166.718     167.155     163.082
  H     -166.816     166.954     172.016
  H     -167.433     166.849     170.385
  H     -168.330     166.140     171.706

 3  4  5  6  7  8  9  10  11  12  23  26  30  31 0
 6-311+G(2d,p)
 ****
 33  35  36  37  38 0
 6-311+G(2d,p)
 ****
 1  2  13  14  15  16  17  18  19  20  21  22  24  25 0
 3-21G
 ****
 27  28  29  32  34  39  40  41  42  43  44  45  46  47  48  49 0
 3-21G
 ****


