%nproc=1
%NoSave
%Mem=1900MB
#P OB98/GEN NMR

erre ene a

0 1
  C       47.460      52.946     -65.015
  O       47.533      53.735     -66.204
  P       47.733      52.922     -67.575
  C       50.316      52.841     -67.379
  O       49.108      52.101     -67.453
  C       51.390      52.233     -68.288
  O       51.786      50.913     -67.806
  C       50.937      52.062     -69.747
  O       52.090      52.296     -70.566
  C       50.537      50.596     -69.785
  O       50.427      50.079     -71.101
  C       51.641      50.003     -68.918
  N       50.436      45.273     -70.396
  C       50.640      46.412     -71.092
  N       50.955      47.638     -70.623
  C       51.063      47.616     -69.283
  C       50.881      46.533     -68.437
  C       50.551      45.310     -69.047
  N       50.319      44.150     -68.346
  N       51.053      46.912     -67.114
  C       51.262      48.215     -67.173
  N       51.358      48.665     -68.457
  O       48.061      54.066     -68.643
  O       46.546      52.104     -67.962
  H       50.241      49.119     -71.066
  H       47.265      54.290     -69.158
  H       50.532      46.329     -72.170
  H       51.350      48.873     -66.319
  H       52.604      49.967     -69.444
  H       49.560      50.475     -69.302
  H       50.140      52.748     -70.043
  H       52.279      52.875     -68.248
  H       50.686      52.855     -66.351
  H       50.084      43.323     -68.872
  H       50.384      44.138     -67.339
  H       50.114      53.883     -67.648
  P       52.040      53.478     -71.651
  C       50.943      52.335     -73.668
  O       50.739      53.156     -72.535
  O       53.212      53.016     -72.642
  O       52.193      54.865     -71.126
  H       53.111      52.081     -72.895
  H       49.975      52.130     -74.130
  H       51.404      51.389     -73.373
  H       51.579      52.851     -74.394
  H       47.327      53.587     -64.169
  H       48.366      52.388     -64.901
  H       46.632      52.272     -65.085

 3  4  5  6  7  8  9  10  11  12  22  25  29  30  31  32 0
 6-311+G(2d,p)
 ****
 33  36  37 0
 6-311+G(2d,p)
 ****
 1  2  13  14  15  16  17  18  19  20  21  23  24  26 0
 3-21G
 ****
 27  28  34  35  38  39  40  41  42  43  44  45  46  47  48 0
 3-21G
 ****


