%nproc=1
%NoSave
%Mem=1900MB
#P OB98/GEN NMR

erre ene a

0 1
  C     -261.365    -969.378     744.839
  O     -260.492    -968.310     744.553
  H     -261.377    -970.055     743.975
  H     -262.384    -969.023     745.018
  H     -261.002    -969.940     745.711
  P     -260.488    -967.048     745.552
  C     -263.056    -966.769     745.555
  O     -261.805    -966.205     745.179
  C     -264.138    -965.687     745.665
  O     -263.817    -964.761     746.716
  C     -264.276    -964.833     744.409
  O     -264.805    -965.516     743.304
  C     -264.980    -963.585     744.943
  O     -266.392    -963.715     744.985
  C     -264.424    -963.494     746.379
  N     -263.491    -962.382     746.546
  C     -264.000    -961.271     747.206
  O     -265.157    -961.188     747.620
  N     -263.132    -960.212     747.349
  C     -261.875    -960.151     746.855
  O     -261.162    -959.157     746.979
  C     -261.397    -961.354     746.123
  C     -262.224    -962.397     746.015
  O     -259.228    -966.237     745.571
  O     -260.859    -967.687     746.970
  H     -266.734    -962.879     745.384
  H     -260.633    -967.083     747.709
  H     -263.476    -959.411     747.846
  H     -260.395    -961.339     745.720
  H     -261.903    -963.299     745.483
  H     -265.251    -963.364     747.097
  H     -264.749    -962.710     744.329
  H     -263.262    -964.506     744.113
  H     -265.092    -966.168     745.906
  H     -262.921    -967.249     746.526
  H     -263.349    -967.533     744.820
  P     -264.068    -965.608     741.890
  C     -264.018    -963.069     741.340
  O     -264.529    -964.341     740.986
  O     -264.012    -966.967     741.245
  O     -262.561    -965.203     742.290
  H     -261.950    -965.719     741.725
  H     -264.400    -962.331     740.666
  H     -262.950    -963.085     741.283
  H     -264.318    -962.829     742.339

 6  7  8  9  10  11  12  13  14  15  16  26  31  32  33  34  35 0
 6-311+G(2d,p)
 ****
 36  37 0
 6-311+G(2d,p)
 ****
 1  2  3  4  5  17  18  19  20  21  22  23  24  25 0
 3-21G
 ****
 27  28  29  30  38  39  40  41  42  43  44  45 0
 3-21G
 ****


