%nproc=1
%NoSave
%Mem=1900MB
#P OB98/GEN NMR

erre ene a

0 1
  C     -123.363     -60.677      -9.816
  O     -123.499     -60.997     -11.187
  H     -122.313     -60.796      -9.533
  H     -123.969     -61.344      -9.199
  H     -123.656     -59.639      -9.641
  P     -124.970     -61.060     -11.824
  C     -124.468     -63.366     -12.861
  O     -125.321     -62.618     -12.006
  C     -125.024     -64.773     -13.087
  O     -124.936     -65.509     -11.835
  C     -126.487     -64.792     -13.549
  O     -126.649     -65.855     -14.492
  C     -127.234     -65.095     -12.266
  O     -128.501     -65.670     -12.525
  C     -126.251     -66.002     -11.517
  N     -126.509     -65.989     -10.078
  C     -127.679     -66.626      -9.647
  O     -128.425     -67.174     -10.463
  N     -128.014     -66.575      -8.317
  C     -127.278     -65.897      -7.491
  N     -127.687     -65.853      -6.194
  C     -126.048     -65.185      -7.907
  C     -125.724     -65.275      -9.198
  O     -125.199     -60.224     -13.039
  O     -125.924     -60.614     -10.616
  H     -129.078     -65.558     -11.738
  H     -126.059     -59.647     -10.637
  H     -125.471     -64.630      -7.182
  H     -124.846     -64.775      -9.595
  H     -126.323     -67.036     -11.878
  H     -127.397     -64.165     -11.704
  H     -126.806     -63.844     -13.995
  H     -124.379     -65.291     -13.808
  H     -128.548     -66.335      -5.964
  H     -123.482     -63.431     -12.382
  H     -127.217     -65.323      -5.472
  H     -124.359     -62.847     -13.821
  P     -126.218     -65.659     -16.025
  C     -128.491     -65.603     -17.204
  O     -127.363     -64.834     -16.796
  O     -125.788     -66.916     -16.719
  O     -124.998     -64.618     -15.948
  H     -124.383     -64.788     -16.690
  H     -129.193     -64.969     -17.705
  H     -128.955     -66.039     -16.344
  H     -128.172     -66.378     -17.869

 6  7  8  9  10  11  12  13  14  15  16  26  30  31  32  33  35 0
 6-311+G(2d,p)
 ****
 37  38 0
 6-311+G(2d,p)
 ****
 1  2  3  4  5  17  18  19  20  21  22  23  24  25 0
 3-21G
 ****
 27  28  29  34  36  39  40  41  42  43  44  45  46 0
 3-21G
 ****


