%nproc=1
%NoSave
%Mem=1900MB
#P OB98/GEN NMR

erre ene a

0 1
  C     -689.258    -199.645     -58.068
  O     -688.422    -199.118     -59.101
  P     -688.739    -197.632     -59.623
  C     -686.385    -196.513     -59.608
  O     -687.663    -196.631     -58.990
  C     -685.276    -196.823     -58.597
  O     -685.375    -198.172     -58.103
  C     -683.882    -196.716     -59.192
  O     -683.488    -195.359     -59.298
  C     -683.047    -197.521     -58.197
  O     -682.551    -196.695     -57.130
  C     -684.067    -198.555     -57.655
  N     -683.747    -199.915     -58.054
  C     -682.512    -200.415     -57.618
  O     -681.762    -199.694     -56.950
  N     -682.164    -201.690     -57.960
  C     -682.953    -202.401     -58.697
  N     -682.544    -203.657     -59.021
  C     -684.249    -201.912     -59.209
  C     -684.583    -200.664     -58.852
  O     -690.094    -197.253     -58.849
  O     -688.905    -197.532     -61.105
  H     -682.004    -196.002     -57.564
  H     -690.643    -196.672     -59.400
  H     -684.871    -202.530     -59.833
  H     -685.514    -200.217     -59.187
  H     -684.090    -198.521     -56.558
  H     -682.179    -197.976     -58.679
  H     -683.849    -197.198     -60.176
  H     -685.375    -196.126     -57.751
  H     -681.646    -203.969     -58.658
  H     -686.252    -195.511     -60.014
  H     -683.084    -204.292     -59.592
  H     -686.345    -197.205     -60.457
  P     -683.765    -194.607     -60.679
  C     -684.146    -192.155     -60.047
  O     -684.754    -193.401     -60.319
  O     -684.757    -195.633     -61.428
  O     -682.579    -194.269     -61.526
  H     -684.924    -195.335     -62.335
  H     -684.924    -191.385     -60.019
  H     -683.430    -191.895     -60.827
  H     -683.648    -192.186     -59.074
  H     -688.936    -200.635     -57.819
  H     -690.272    -199.675     -58.410
  H     -689.192    -199.020     -57.202

 3  4  5  6  7  8  9  10  11  12  13  21  23  27  28  29  30  32 0
 6-311+G(2d,p)
 ****
 34  35 0
 6-311+G(2d,p)
 ****
 1  2  14  15  16  17  18  19  20  22  24  25  26 0
 3-21G
 ****
 31  33  36  37  38  39  40  41  42  43  44  45  46 0
 3-21G
 ****


