%nproc=1
%NoSave
%Mem=1900MB
#P OB98/GEN NMR

erre ene a

0 1
  C     -217.578    -847.484    1043.510
  O     -217.850    -848.867    1043.636
  H     -217.026    -847.319    1042.580
  H     -216.960    -847.147    1044.348
  H     -218.508    -846.909    1043.480
  P     -218.798    -849.306    1044.852
  C     -221.013    -849.094    1043.451
  O     -220.252    -848.672    1044.579
  C     -222.355    -849.666    1043.912
  O     -222.207    -851.004    1044.421
  C     -222.980    -848.907    1045.065
  O     -223.479    -847.640    1044.682
  C     -224.065    -849.889    1045.488
  O     -225.199    -849.821    1044.619
  C     -223.321    -851.244    1045.314
  N     -222.896    -851.807    1046.585
  C     -223.872    -852.509    1047.300
  O     -225.012    -852.630    1046.846
  N     -223.543    -853.031    1048.527
  C     -222.339    -852.886    1048.985
  N     -222.077    -853.418    1050.213
  C     -221.268    -852.180    1048.252
  C     -221.618    -851.672    1047.070
  O     -218.247    -848.422    1046.065
  O     -218.843    -850.773    1045.126
  H     -225.508    -848.905    1044.630
  H     -218.212    -847.473    1045.867
  H     -220.274    -852.108    1048.668
  H     -220.893    -851.130    1046.473
  H     -223.966    -851.976    1044.819
  H     -224.426    -849.700    1046.501
  H     -222.269    -848.804    1045.892
  H     -223.019    -849.702    1043.034
  H     -222.836    -853.876    1050.696
  H     -220.458    -849.827    1042.854
  H     -221.183    -853.349    1050.685
  H     -221.174    -848.213    1042.812
  P     -223.879    -846.557    1045.795
  C     -221.484    -845.647    1045.610
  O     -222.512    -846.087    1046.492
  O     -224.953    -846.980    1046.741
  O     -224.266    -845.274    1044.919
  H     -223.550    -844.927    1044.351
  H     -220.625    -845.360    1046.179
  H     -221.834    -844.809    1045.044
  H     -221.221    -846.442    1044.944

 6  7  8  9  10  11  12  13  14  15  16  26  30  31  32  33  35 0
 6-311+G(2d,p)
 ****
 37  38 0
 6-311+G(2d,p)
 ****
 1  2  3  4  5  17  18  19  20  21  22  23  24  25 0
 3-21G
 ****
 27  28  29  34  36  39  40  41  42  43  44  45  46 0
 3-21G
 ****


