%nproc=1
%NoSave
%Mem=1900MB
#P OB98/GEN NMR

erre ene a

0 1
  C       65.643    -505.204      36.775
  O       67.016    -504.848      36.840
  P       68.076    -505.592      37.760
  C       68.308    -506.121      40.303
  O       67.703    -505.306      39.308
  C       68.718    -505.320      41.557
  O       67.543    -504.682      42.119
  C       69.243    -506.277      42.634
  O       70.593    -506.698      42.619
  C       68.782    -505.665      43.973
  O       69.799    -504.902      44.601
  C       67.610    -504.766      43.551
  N       64.927    -506.162      47.620
  C       66.146    -505.509      47.560
  N       66.804    -505.368      48.731
  N       66.664    -505.037      46.462
  C       65.940    -505.336      45.359
  C       64.701    -505.970      45.283
  C       64.131    -506.419      46.523
  O       63.096    -507.099      46.608
  N       64.302    -506.148      43.989
  C       65.293    -505.679      43.270
  N       66.324    -505.200      44.052
  O       69.509    -505.516      37.346
  O       67.606    -507.139      37.601
  H       69.410    -504.446      45.379
  H       68.416    -507.703      37.628
  H       64.621    -506.563      48.494
  H       65.330    -505.675      42.182
  H       67.770    -503.750      43.923
  H       68.500    -506.457      44.675
  H       66.506    -505.851      49.577
  H       68.664    -507.213      42.544
  H       67.767    -505.047      48.716
  H       69.404    -504.514      41.305
  H       69.196    -506.589      39.844
  H       67.628    -506.917      40.587
  P       71.188    -508.028      43.275
  C       71.025    -509.258      45.526
  O       70.806    -508.035      44.827
  O       72.776    -507.795      43.296
  O       70.864    -509.298      42.536
  H       73.237    -508.642      43.345
  H       70.459    -509.251      46.449
  H       72.099    -509.364      45.739
  H       70.688    -510.120      44.908
  H       65.139    -504.557      36.087
  H       65.203    -505.106      37.745
  H       65.553    -506.217      36.443

 3  4  5  6  7  8  9  10  11  12  23  26  30  31 0
 6-311+G(2d,p)
 ****
 33  35  36  37  38 0
 6-311+G(2d,p)
 ****
 1  2  13  14  15  16  17  18  19  20  21  22  24  25 0
 3-21G
 ****
 27  28  29  32  34  39  40  41  42  43  44  45  46  47  48  49 0
 3-21G
 ****


