%nproc=1
%NoSave
%Mem=1900MB
#P OB98/GEN NMR

erre ene a

0 1
  C     -646.837    -552.161    -521.420
  O     -645.813    -551.283    -521.006
  H     -647.386    -552.502    -520.539
  H     -646.414    -553.038    -521.927
  H     -647.533    -551.645    -522.088
  P     -644.785    -550.732    -522.112
  C     -643.033    -550.636    -520.211
  O     -643.621    -549.966    -521.315
  C     -642.925    -549.700    -518.995
  O     -642.002    -548.623    -519.318
  C     -644.259    -549.051    -518.592
  O     -644.211    -548.820    -517.174
  C     -644.194    -547.735    -519.349
  O     -645.156    -546.821    -518.883
  C     -642.714    -547.373    -519.154
  N     -642.263    -546.357    -520.085
  C     -641.379    -545.391    -519.573
  O     -641.040    -545.433    -518.387
  N     -640.928    -544.403    -520.399
  C     -641.367    -544.328    -521.620
  N     -640.896    -543.308    -522.386
  C     -642.337    -545.289    -522.185
  C     -642.737    -546.272    -521.374
  O     -645.388    -549.956    -523.235
  O     -644.048    -552.053    -522.636
  H     -645.096    -545.971    -519.372
  H     -644.393    -552.288    -523.526
  H     -642.692    -545.171    -523.200
  H     -643.447    -547.023    -521.700
  H     -642.531    -547.022    -518.128
  H     -644.408    -547.892    -520.409
  H     -645.134    -549.655    -518.850
  H     -642.482    -550.261    -518.160
  H     -640.232    -542.674    -521.951
  H     -642.034    -550.966    -520.518
  H     -641.181    -543.141    -523.342
  H     -643.630    -551.516    -519.935
  P     -645.517    -548.786    -516.253
  C     -644.235    -547.240    -514.636
  O     -645.111    -548.357    -514.764
  O     -646.344    -550.036    -516.324
  O     -646.370    -547.523    -516.783
  H     -647.318    -547.708    -516.657
  H     -644.041    -547.056    -513.600
  H     -644.692    -546.377    -515.073
  H     -643.314    -547.449    -515.139

 6  7  8  9  10  11  12  13  14  15  16  26  30  31  32  33  35 0
 6-311+G(2d,p)
 ****
 37  38 0
 6-311+G(2d,p)
 ****
 1  2  3  4  5  17  18  19  20  21  22  23  24  25 0
 3-21G
 ****
 27  28  29  34  36  39  40  41  42  43  44  45  46 0
 3-21G
 ****


