%nproc=1
%NoSave
%Mem=1900MB
#P OB98/GEN NMR

erre ene a

0 1
  C     -330.073     291.589    -124.335
  O     -330.129     291.980    -125.697
  P     -328.798     292.400    -126.494
  C     -329.755     294.785    -126.620
  O     -328.646     293.977    -126.237
  C     -329.262     296.093    -127.232
  O     -328.394     296.746    -126.275
  C     -328.430     295.966    -128.505
  O     -329.190     295.858    -129.700
  C     -327.692     297.298    -128.498
  O     -328.566     298.340    -128.975
  C     -327.392     297.493    -127.011
  N     -322.413     298.669    -126.895
  C     -323.499     299.369    -127.292
  N     -324.791     298.978    -127.309
  C     -324.917     297.737    -126.813
  C     -323.905     296.903    -126.366
  C     -322.598     297.416    -126.419
  N     -321.495     296.707    -125.987
  N     -324.420     295.690    -125.947
  C     -325.721     295.803    -126.130
  N     -326.069     297.022    -126.642
  O     -328.770     291.967    -127.919
  O     -327.609     291.780    -125.629
  H     -329.062     297.970    -129.726
  H     -326.788     291.753    -126.161
  H     -323.306     300.376    -127.648
  H     -326.443     295.029    -125.910
  H     -327.475     298.540    -126.699
  H     -326.812     297.302    -129.148
  H     -327.701     295.151    -128.427
  H     -330.129     296.745    -127.396
  H     -330.345     295.006    -125.723
  H     -320.618     297.201    -125.942
  H     -321.647     295.845    -125.486
  H     -330.387     294.236    -127.322
  P     -328.591     294.932    -130.872
  C     -327.100     296.958    -131.594
  O     -327.183     295.589    -131.263
  O     -329.525     294.684    -132.003
  O     -328.174     293.601    -130.085
  H     -327.437     293.701    -129.461
  H     -326.050     297.238    -131.671
  H     -327.572     297.573    -130.828
  H     -327.582     297.139    -132.561
  H     -331.058     291.350    -123.992
  H     -329.676     292.392    -123.750
  H     -329.443     290.730    -124.236

 3  4  5  6  7  8  9  10  11  12  22  25  29  30  31  32 0
 6-311+G(2d,p)
 ****
 33  36  37 0
 6-311+G(2d,p)
 ****
 1  2  13  14  15  16  17  18  19  20  21  23  24  26 0
 3-21G
 ****
 27  28  34  35  38  39  40  41  42  43  44  45  46  47  48 0
 3-21G
 ****


