%nproc=1
%NoSave
%Mem=1900MB
#P OB98/GEN NMR

erre ene a

0 1
  C      131.113     -95.593       4.230
  O      131.798     -95.457       5.460
  H      130.047     -95.416       4.401
  H      131.243     -96.603       3.833
  H      131.484     -94.860       3.509
  P      133.372     -95.785       5.436
  C      132.648     -98.229       6.003
  O      133.420     -97.370       5.175
  C      132.351     -99.528       5.261
  O      131.440     -99.292       4.165
  C      133.578    -100.184       4.637
  O      134.366    -100.893       5.579
  C      132.912    -101.115       3.640
  O      132.370    -102.255       4.334
  C      131.786    -100.209       3.091
  N      132.176     -99.471       1.888
  C      132.025    -100.137       0.667
  O      131.596    -101.290       0.630
  N      132.401     -99.492      -0.490
  C      132.873     -98.285      -0.432
  N      133.241     -97.700      -1.606
  C      133.031     -97.541       0.831
  C      132.669     -98.186       1.938
  O      133.803     -95.673       6.974
  O      134.199     -94.966       4.503
  H      131.976    -102.835       3.658
  H      134.736     -95.981       7.084
  H      133.440     -96.540       0.829
  H      132.760     -97.702       2.905
  H      130.887    -100.797       2.865
  H      133.601    -101.497       2.884
  H      134.187     -99.458       4.086
  H      131.848    -100.211       5.963
  H      133.178     -98.256      -2.447
  H      131.714     -97.716       6.257
  H      133.780     -96.844      -1.642
  H      133.194     -98.453       6.924
  P      135.954    -100.932       5.344
  C      135.746    -103.044       3.847
  O      136.205    -101.705       3.960
  O      136.457    -101.978       6.444
  O      136.644     -99.608       5.471
  H      137.305    -101.699       6.837
  H      135.984    -103.422       2.875
  H      134.686    -103.071       3.990
  H      136.222    -103.648       4.591

 6  7  8  9  10  11  12  13  14  15  16  26  30  31  32  33  35 0
 6-311+G(2d,p)
 ****
 37  38 0
 6-311+G(2d,p)
 ****
 1  2  3  4  5  17  18  19  20  21  22  23  24  25 0
 3-21G
 ****
 27  28  29  34  36  39  40  41  42  43  44  45  46 0
 3-21G
 ****


