%nproc=1
%NoSave
%Mem=1900MB
#P OB98/GEN NMR

erre ene a

0 1
  C       36.386     653.295     587.604
  O       35.780     653.872     586.459
  P       35.688     655.471     586.272
  C       35.637     655.538     583.682
  O       36.405     655.756     584.864
  C       36.314     654.501     582.801
  O       36.503     653.263     583.538
  C       35.524     654.113     581.546
  O       35.631     655.122     580.553
  C       36.184     652.773     581.204
  O       37.435     653.003     580.519
  C       36.451     652.173     582.607
  N       35.439     651.184     582.995
  C       35.228     650.131     582.117
  O       35.868     650.043     581.048
  N       34.313     649.154     582.442
  C       33.642     649.249     583.559
  N       32.799     648.229     583.873
  C       33.802     650.382     584.492
  C       34.714     651.300     584.148
  O       36.236     656.264     587.416
  O       34.159     655.753     585.953
  H       37.863     652.137     580.444
  H       33.599     655.901     586.761
  H       33.221     650.425     585.409
  H       34.900     652.152     584.797
  H       37.445     651.688     582.625
  H       35.549     652.141     580.560
  H       34.465     653.947     581.793
  H       37.321     654.882     582.519
  H       32.866     647.399     583.302
  H       35.557     656.485     583.145
  H       32.483     648.089     584.827
  H       34.620     655.206     583.979
  P       34.360     656.113     580.405
  C       35.761     658.266     579.947
  O       34.891     657.564     580.837
  O       33.388     655.675     581.590
  O       33.692     656.053     579.059
  H       32.675     655.099     581.247
  H       35.839     659.296     580.277
  H       35.369     658.237     578.925
  H       36.761     657.811     579.980
  H       36.342     652.228     587.531
  H       35.865     653.614     588.482
  H       37.408     653.607     587.662

 3  4  5  6  7  8  9  10  11  12  13  23  27  28  29  30  32 0
 6-311+G(2d,p)
 ****
 34  35 0
 6-311+G(2d,p)
 ****
 1  2  14  15  16  17  18  19  20  21  22  24  25  26 0
 3-21G
 ****
 31  33  36  37  38  39  40  41  42  43  44  45  46 0
 3-21G
 ****


