%nproc=1
%NoSave
%Mem=1900MB
#P OB98/GEN NMR

erre ene a

0 1
  C     1010.038     153.823      18.904
  O     1009.658     154.486      17.711
  H     1009.242     153.157      19.238
  H     1010.935     153.225      18.700
  H     1010.273     154.554      19.685
  P     1008.366     155.429      17.791
  C     1007.215     153.927      16.008
  O     1007.134     154.521      17.294
  C     1005.964     153.083      15.748
  O     1005.909     151.978      16.689
  C     1004.654     153.847      15.927
  O     1004.321     154.609      14.784
  C     1003.686     152.686      16.112
  O     1003.407     152.078      14.829
  C     1004.505     151.725      16.992
  N     1001.163     151.075      20.810
  C     1001.086     150.816      19.487
  N     1002.018     151.021      18.531
  C     1003.136     151.555      19.071
  C     1003.352     151.885      20.386
  C     1002.304     151.615      21.293
  N     1002.385     151.896      22.646
  N     1004.616     152.454      20.553
  C     1005.143     152.428      19.344
  N     1004.281     151.908      18.410
  O     1008.576     156.459      16.577
  O     1008.148     156.128      19.095
  H     1004.112     151.421      14.675
  H     1008.028     157.257      16.721
  H     1000.145     150.383      19.148
  H     1006.131     152.775      19.101
  H     1004.313     150.676      16.760
  H     1002.727     152.996      16.537
  H     1004.654     154.454      16.841
  H     1006.039     152.663      14.739
  H     1008.097     153.282      15.968
  H     1001.524     151.846      23.167
  H     1003.175     152.437      22.979
  H     1007.303     154.721      15.249
  P     1003.115     155.667      14.923
  C     1001.764     154.138      13.312
  O     1001.778     154.859      14.537
  O     1003.332     156.647      13.684
  O     1003.087     156.401      16.227
  H     1002.972     157.524      13.856
  H     1000.816     153.656      13.193
  H     1002.540     153.402      13.323
  H     1001.925     154.814      12.498

 6  7  8  9  10  11  12  13  14  15  25  28  32  33  34  35 0
 6-311+G(2d,p)
 ****
 36  39  40 0
 6-311+G(2d,p)
 ****
 1  2  3  4  5  16  17  18  19  20  21  22  23  24 0
 3-21G
 ****
 26  27  29  30  31  37  38  41  42  43  44  45  46  47 0
 3-21G
 ****
 48 0
 3-21G
 ****


