%nproc=1
%NoSave
%Mem=1900MB
#P OB98/GEN NMR

erre ene a

0 1
  C      -55.219      14.137     109.404
  O      -54.798      15.426     109.003
  H      -54.351      13.504     109.607
  H      -55.809      14.229     110.318
  H      -55.839      13.682     108.625
  P      -53.935      15.512     107.654
  C      -55.483      17.527     107.126
  O      -54.171      16.986     107.065
  C      -55.419      19.034     107.355
  O      -54.854      19.317     108.651
  C      -54.555      19.795     106.355
  O      -55.239      20.023     105.133
  C      -54.321      21.093     107.114
  O      -55.481      21.938     107.000
  C      -54.173      20.596     108.560
  N      -50.304      22.634     111.215
  C      -51.589      23.014     111.059
  N      -52.566      22.409     110.352
  C      -52.109      21.283     109.783
  C      -50.832      20.753     109.869
  C      -49.898      21.483     110.622
  N      -48.565      21.116     110.720
  N      -50.736      19.586     109.134
  C      -51.929      19.428     108.600
  N      -52.793      20.423     108.968
  O      -54.751      14.564     106.650
  O      -52.510      15.087     107.782
  H      -55.511      22.250     106.075
  H      -54.338      13.681     106.637
  H      -51.872      23.932     111.565
  H      -52.209      18.617     107.942
  H      -54.653      21.269     109.280
  H      -53.467      21.663     106.738
  H      -53.592      19.296     106.194
  H      -56.448      19.418     107.351
  H      -56.032      17.060     107.949
  H      -47.938      21.903     110.859
  H      -48.274      20.414     110.049
  H      -55.996      17.307     106.185
  P      -54.378      19.992     103.779
  C      -56.508      20.268     102.337
  O      -55.231      20.791     102.678
  O      -54.497      18.464     103.317
  O      -52.954      20.405     103.919
  H      -53.604      18.081     103.211
  H      -56.964      20.893     101.598
  H      -57.126      20.239     103.210
  H      -56.395      19.278     101.947

 6  7  8  9  10  11  12  13  14  15  25  28  32  33  34  35 0
 6-311+G(2d,p)
 ****
 36  39  40 0
 6-311+G(2d,p)
 ****
 1  2  3  4  5  16  17  18  19  20  21  22  23  24 0
 3-21G
 ****
 26  27  29  30  31  37  38  41  42  43  44  45  46  47  48 0
 3-21G
 ****


