%nproc=1
%NoSave
%Mem=1900MB
#P OB98/GEN NMR

erre ene a

0 1
  C      225.462      10.634    -145.258
  O      226.486      11.509    -145.745
  P      227.413      12.404    -144.782
  C      225.745      14.371    -144.739
  O      226.490      13.439    -143.971
  C      226.060      15.822    -144.344
  O      225.475      16.127    -143.039
  C      227.567      16.145    -144.258
  O      227.731      17.473    -144.770
  C      227.816      16.094    -142.754
  O      229.002      16.752    -142.351
  C      226.519      16.750    -142.254
  N      226.249      16.603    -140.825
  C      227.019      17.366    -139.936
  O      227.926      18.097    -140.331
  N      226.750      17.269    -138.586
  C      225.808      16.480    -138.163
  N      225.588      16.445    -136.820
  C      224.990      15.644    -139.062
  C      225.260      15.756    -140.364
  O      228.554      13.062    -145.491
  O      227.953      11.402    -143.652
  H      228.867      11.654    -143.409
  H      229.755      16.316    -142.791
  H      224.213      15.008    -138.670
  H      224.685      15.194    -141.093
  H      226.528      17.815    -142.519
  H      227.888      15.045    -142.448
  H      228.197      15.463    -144.835
  H      225.569      16.489    -145.066
  H      226.168      17.042    -136.234
  H      224.677      14.189    -144.571
  H      224.878      15.873    -136.382
  H      225.958      14.212    -145.807
  P      227.746      17.714    -146.359
  C      230.295      18.247    -146.576
  O      229.221      17.373    -146.888
  O      227.731      19.321    -146.449
  O      226.595      17.143    -147.128
  H      227.343      19.590    -147.303
  H      231.157      17.648    -146.269
  H      230.042      18.944    -145.771
  H      230.562      18.814    -147.477
  H      224.985      10.149    -146.084
  H      224.738      11.201    -144.711
  H      225.898       9.898    -144.615

 3  4  5  6  7  8  9  10  11  12  13  24  27  28  29  30  32 0
 6-311+G(2d,p)
 ****
 34  35 0
 6-311+G(2d,p)
 ****
 1  2  14  15  16  17  18  19  20  21  22  23  25  26 0
 3-21G
 ****
 31  33  36  37  38  39  40  41  42  43  44  45  46 0
 3-21G
 ****


