%nproc=1
%NoSave
%Mem=1900MB
#P OB98/GEN NMR

erre ene a

0 1
  C      541.186     182.872    -329.143
  O      542.328     182.195    -328.648
  P      542.860     182.596    -327.192
  C      544.541     180.606    -327.274
  O      544.337     181.989    -327.034
  C      546.037     180.305    -327.362
  O      546.735     180.932    -326.264
  C      546.384     178.827    -327.281
  O      546.153     178.171    -328.509
  C      547.856     178.871    -326.874
  O      548.698     179.061    -328.019
  C      547.892     180.112    -325.959
  N      547.945     179.753    -324.540
  C      549.179     179.914    -323.925
  O      550.188     180.296    -324.526
  N      549.232     179.568    -322.598
  C      548.207     179.054    -321.864
  O      548.342     178.710    -320.691
  C      546.931     178.881    -322.579
  C      546.865     179.238    -323.863
  O      541.973     181.692    -326.195
  O      542.750     184.051    -326.865
  H      548.513     179.967    -328.362
  H      541.781     182.197    -325.383
  H      550.114     179.703    -322.123
  H      546.095     178.471    -322.021
  H      545.940     179.106    -324.411
  H      548.767     180.716    -326.195
  H      548.169     177.946    -326.390
  H      545.799     178.355    -326.477
  H      546.423     180.742    -328.294
  H      544.056     180.325    -328.201
  H      544.085     180.025    -326.458
  P      545.842     176.598    -328.464
  C      544.365     177.124    -330.553
  O      545.263     176.242    -329.917
  O      544.567     176.583    -327.484
  O      546.996     175.790    -327.984
  H      544.016     177.381    -327.583
  H      544.603     178.164    -330.341
  H      543.342     176.898    -330.226
  H      544.428     176.959    -331.643
  H      540.948     182.503    -330.119
  H      541.389     183.921    -329.198
  H      540.359     182.703    -328.486

 3  4  5  6  7  8  9  10  11  12  13  23  28  29  30  31  32 0
 6-311+G(2d,p)
 ****
 33  34 0
 6-311+G(2d,p)
 ****
 1  2  14  15  16  17  18  19  20  21  22  24  25  26 0
 3-21G
 ****
 27  35  36  37  38  39  40  41  42  43  44  45 0
 3-21G
 ****


