%nproc=1
%NoSave
%Mem=1900MB
#P OB98/GEN NMR

erre ene a

0 1
  C      137.334      18.585      31.509
  O      138.663      19.045      31.362
  H      137.347      17.642      32.061
  H      136.895      18.410      30.523
  H      136.730      19.310      32.064
  P      138.856      20.563      30.879
  C      139.157      19.712      28.443
  O      138.471      20.595      29.319
  C      138.495      19.711      27.068
  O      137.101      19.347      27.181
  C      138.531      21.057      26.353
  O      139.766      21.258      25.677
  C      137.391      20.880      25.363
  O      137.826      20.051      24.263
  C      136.352      20.125      26.206
  N      131.493      21.524      26.602
  C      132.096      20.659      25.710
  N      131.290      20.090      24.788
  N      133.372      20.377      25.716
  C      134.061      21.036      26.679
  C      133.577      21.922      27.617
  C      132.161      22.212      27.609
  O      131.576      22.963      28.383
  N      134.575      22.392      28.429
  C      135.664      21.807      27.970
  N      135.406      20.976      26.907
  O      140.449      20.735      30.881
  O      138.197      21.593      31.734
  H      137.037      19.853      23.726
  H      140.711      21.233      31.678
  H      130.506      21.714      26.547
  H      136.657      21.943      28.376
  H      135.764      19.422      25.607
  H      137.055      21.825      24.933
  H      130.302      20.280      24.712
  H      138.301      21.887      27.034
  H      131.709      19.448      24.125
  H      138.985      18.938      26.462
  H      139.129      18.701      28.863
  H      140.199      20.038      28.355
  P      140.297      22.761      25.500
  C      138.956      23.001      23.292
  O      139.224      23.532      24.582
  O      141.554      22.575      24.528
  O      140.680      23.455      26.761
  H      142.381      22.768      25.011
  H      138.229      23.612      22.799
  H      138.579      22.004      23.388
  H      139.859      22.987      22.717

 6  7  8  9  10  11  12  13  14  15  26  29  33  34 0
 6-311+G(2d,p)
 ****
 36  38  39  40  41 0
 6-311+G(2d,p)
 ****
 1  2  3  4  5  16  17  18  19  20  21  22  23  24  25 0
 3-21G
 ****
 27  28  30  31  32  35  37  42  43  44  45  46  47 0
 3-21G
 ****
 48  49 0
 3-21G
 ****


