%nproc=1
%NoSave
%Mem=1900MB
#P OB98/GEN NMR

erre ene a

0 1
  C      161.385    -387.860      14.498
  O      161.945    -389.079      14.049
  H      160.580    -388.082      15.202
  H      160.970    -387.308      13.648
  H      162.143    -387.254      15.003
  P      163.265    -388.976      13.139
  C      164.363    -391.135      14.156
  O      163.829    -390.473      13.023
  C      165.452    -392.125      13.738
  O      164.822    -393.270      13.116
  C      166.460    -391.546      12.742
  O      167.745    -392.104      13.027
  C      165.969    -392.071      11.403
  O      167.006    -392.104      10.427
  C      165.408    -393.444      11.808
  N      164.435    -393.954      10.843
  C      164.932    -394.341       9.596
  O      166.134    -394.232       9.344
  N      164.058    -394.800       8.645
  C      162.785    -394.814       8.894
  N      161.967    -395.256       7.901
  C      162.211    -394.373      10.181
  C      163.085    -393.970      11.104
  O      164.294    -388.259      14.134
  O      163.066    -388.267      11.842
  H      166.674    -392.582       9.634
  H      164.279    -388.625      15.035
  H      161.143    -394.391      10.336
  H      162.752    -393.636      12.077
  H      166.219    -394.179      11.901
  H      165.169    -391.431      11.020
  H      166.512    -390.454      12.777
  H      165.955    -392.490      14.640
  H      162.399    -395.526       7.029
  H      163.573    -391.669      14.692
  H      160.961    -395.257       7.965
  H      164.777    -390.375      14.827
  P      168.923    -391.149      13.535
  C      169.677    -393.146      14.995
  O      170.080    -392.040      14.198
  O      168.499    -389.964      14.332
  O      169.609    -390.674      12.159
  H      169.827    -389.725      12.247
  H      170.543    -393.648      15.372
  H      169.102    -393.824      14.399
  H      169.082    -392.798      15.814

 6  7  8  9  10  11  12  13  14  15  16  26  30  31  32  33  35 0
 6-311+G(2d,p)
 ****
 37  38 0
 6-311+G(2d,p)
 ****
 1  2  3  4  5  17  18  19  20  21  22  23  24  25 0
 3-21G
 ****
 27  28  29  34  36  39  40  41  42  43  44  45  46 0
 3-21G
 ****


