%nproc=1
%NoSave
%Mem=1900MB
#P OB98/GEN NMR

erre ene a

0 1
  C     -305.160    -274.016     443.579
  O     -306.180    -274.855     444.119
  P     -307.748    -274.561     444.036
  C     -308.123    -276.040     446.167
  O     -308.515    -275.711     444.845
  C     -308.652    -277.406     446.650
  O     -310.100    -277.428     446.537
  C     -308.135    -278.517     445.721
  O     -306.842    -279.076     445.929
  C     -309.257    -279.545     445.694
  O     -309.068    -280.588     446.672
  C     -310.497    -278.724     446.034
  N     -313.758    -280.935     442.751
  C     -312.983    -281.516     443.740
  N     -313.035    -282.864     443.834
  N     -312.200    -280.827     444.534
  C     -312.177    -279.499     444.279
  C     -312.880    -278.809     443.312
  C     -313.778    -279.563     442.472
  O     -314.506    -279.100     441.589
  N     -312.590    -277.477     443.334
  C     -311.669    -277.363     444.290
  N     -311.390    -278.572     444.895
  O     -308.263    -274.220     442.676
  O     -307.922    -273.250     444.973
  H     -308.820    -280.166     447.507
  H     -308.650    -272.731     444.580
  H     -314.350    -281.498     442.171
  H     -311.192    -276.435     444.573
  H     -311.095    -279.193     446.836
  H     -309.302    -280.044     444.725
  H     -313.520    -283.447     443.176
  H     -308.092    -278.112     444.697
  H     -312.312    -283.307     444.404
  H     -308.418    -277.578     447.705
  H     -308.501    -275.237     446.832
  H     -307.036    -276.011     446.261
  P     -305.614    -279.025     444.912
  C     -304.437    -281.178     445.661
  O     -304.375    -279.770     445.605
  O     -305.158    -277.469     444.928
  O     -305.922    -279.462     443.514
  H     -304.588    -277.280     444.167
  H     -303.711    -281.527     446.409
  H     -304.185    -281.592     444.692
  H     -305.438    -281.510     445.959
  H     -304.201    -274.449     443.775
  H     -305.215    -273.049     444.034
  H     -305.299    -273.921     442.522

 3  4  5  6  7  8  9  10  11  12  23  26  30  31 0
 6-311+G(2d,p)
 ****
 33  35  36  37  38 0
 6-311+G(2d,p)
 ****
 1  2  13  14  15  16  17  18  19  20  21  22  24  25 0
 3-21G
 ****
 27  28  29  32  34  39  40  41  42  43  44  45  46  47  48  49 0
 3-21G
 ****


