%nproc=1
%NoSave
%Mem=1900MB
#P OB98/GEN NMR

erre ene a

0 1
  C     -114.248     -18.261      45.977
  O     -114.296     -16.888      46.308
  H     -113.386     -18.712      46.474
  H     -114.133     -18.380      44.898
  H     -115.156     -18.771      46.314
  P     -115.609     -16.074      45.881
  C     -116.762     -15.622      43.595
  O     -115.559     -15.933      44.281
  C     -116.481     -14.615      42.480
  O     -116.090     -13.350      43.086
  C     -115.354     -15.037      41.528
  O     -115.687     -14.593      40.209
  C     -114.164     -14.242      42.034
  O     -113.150     -14.038      41.060
  C     -114.849     -12.945      42.474
  N     -114.035     -12.167      43.405
  C     -113.057     -11.340      42.861
  O     -112.886     -11.152      41.658
  N     -112.248     -10.706      43.770
  C     -112.304     -10.835      45.126
  O     -111.537     -10.257      45.886
  C     -113.352     -11.729      45.640
  C     -114.153     -12.346      44.769
  O     -115.295     -14.592      46.393
  O     -116.896     -16.605      46.417
  H     -115.609     -14.474      47.309
  H     -112.556     -13.337      41.397
  H     -111.534     -10.105      43.393
  H     -113.419     -11.865      46.711
  H     -114.923     -13.028      45.114
  H     -115.100     -12.331      41.602
  H     -113.711     -14.754      42.891
  H     -115.155     -16.113      41.518
  H     -117.411     -14.433      41.927
  H     -117.478     -15.185      44.297
  H     -117.189     -16.542      43.181
  P     -116.483     -15.620      39.265
  C     -115.718     -17.671      37.825
  O     -115.417     -16.747      38.861
  O     -116.661     -14.746      37.940
  O     -117.751     -16.110      39.879
  H     -115.904     -14.162      37.765
  H     -114.895     -18.343      37.696
  H     -115.891     -17.140      36.912
  H     -116.595     -18.226      38.086

 6  7  8  9  10  11  12  13  14  15  16  27  31  32  33  34  35 0
 6-311+G(2d,p)
 ****
 36  37 0
 6-311+G(2d,p)
 ****
 1  2  3  4  5  17  18  19  20  21  22  23  24  25 0
 3-21G
 ****
 26  28  29  30  38  39  40  41  42  43  44  45 0
 3-21G
 ****


