%nproc=1
%NoSave
%Mem=1900MB
#P OB98/GEN NMR

erre ene a

0 1
  C     -104.142     193.869     344.518
  O     -102.779     193.899     344.165
  P     -101.834     192.629     344.442
  C     -100.181     191.220     343.061
  O     -101.005     192.384     343.092
  C      -99.448     191.133     341.725
  O     -100.381     190.971     340.622
  C      -98.654     192.380     341.368
  O      -97.545     192.701     342.180
  C      -98.388     192.153     339.891
  O      -97.280     191.271     339.690
  C      -99.709     191.475     339.442
  N     -100.560     192.389     338.681
  C     -100.076     192.776     337.433
  O      -99.007     192.391     336.967
  N     -100.864     193.659     336.740
  C     -102.029     194.215     337.177
  O     -102.659     195.034     336.521
  C     -102.480     193.781     338.509
  C     -101.735     192.905     339.190
  O     -102.534     191.426     344.972
  O     -100.714     193.215     345.428
  H      -96.468     191.766     339.909
  H     -100.194     193.951     345.054
  H     -100.523     193.957     335.837
  H     -103.407     194.195     338.883
  H     -102.047     192.569     340.175
  H      -99.491     190.606     338.808
  H      -98.155     193.085     339.366
  H      -99.328     193.242     341.441
  H      -98.813     190.241     341.743
  H     -100.819     190.330     343.175
  H      -99.479     191.242     343.901
  P      -96.836     194.137     342.180
  C      -96.103     195.859     343.974
  O      -96.900     194.737     343.662
  O      -97.181     195.052     341.047
  O      -95.285     193.728     342.066
  H      -94.814     194.426     341.575
  H      -96.248     196.108     345.031
  H      -96.415     196.730     343.372
  H      -95.048     195.639     343.803
  H     -104.599     194.800     344.256
  H     -104.234     193.711     345.572
  H     -104.629     193.073     343.994

 3  4  5  6  7  8  9  10  11  12  13  23  28  29  30  31  32 0
 6-311+G(2d,p)
 ****
 33  34 0
 6-311+G(2d,p)
 ****
 1  2  14  15  16  17  18  19  20  21  22  24  25  26  27 0
 3-21G
 ****
 35  36  37  38  39  40  41  42  43  44  45 0
 3-21G
 ****


