%nproc=1
%NoSave
%Mem=1900MB
#P OB98/GEN NMR

erre ene a

0 1
  C      575.456     378.026    -120.092
  O      575.639     378.482    -118.766
  H      574.537     377.436    -120.135
  H      576.294     377.398    -120.410
  H      575.353     378.881    -120.771
  P      577.054     379.138    -118.379
  C      577.894     376.768    -117.804
  O      578.133     377.957    -118.554
  C      577.744     377.076    -116.314
  O      577.327     375.895    -115.587
  C      579.036     377.508    -115.632
  O      579.537     378.756    -116.063
  C      578.701     377.302    -114.167
  O      577.976     378.401    -113.610
  C      577.798     376.046    -114.231
  N      578.484     374.848    -113.767
  C      578.350     374.551    -112.412
  O      577.722     375.254    -111.621
  N      578.999     373.428    -111.979
  C      579.790     372.613    -112.741
  O      580.363     371.632    -112.287
  C      579.924     372.994    -114.159
  C      579.270     374.074    -114.597
  O      577.112     379.821    -117.044
  O      577.375     380.107    -119.614
  H      577.895     378.228    -112.654
  H      578.095     380.746    -119.385
  H      578.905     373.190    -111.003
  H      580.548     372.380    -114.784
  H      579.351     374.378    -115.641
  H      576.906     376.187    -113.606
  H      579.595     377.168    -113.557
  H      579.814     376.773    -115.881
  H      576.963     377.832    -116.199
  H      578.748     376.103    -117.954
  H      576.993     376.276    -118.182
  P      581.012     379.275    -115.750
  C      580.421     381.327    -114.233
  O      580.998     380.029    -114.331
  O      581.749     379.916    -116.880
  O      581.771     377.896    -115.390
  H      582.695     377.988    -115.706
  H      580.497     381.676    -113.224
  H      579.391     381.282    -114.518
  H      580.941     381.999    -114.883

 6  7  8  9  10  11  12  13  14  15  16  26  31  32  33  34  35 0
 6-311+G(2d,p)
 ****
 36  37 0
 6-311+G(2d,p)
 ****
 1  2  3  4  5  17  18  19  20  21  22  23  24  25 0
 3-21G
 ****
 27  28  29  30  38  39  40  41  42  43  44  45 0
 3-21G
 ****


