%nproc=1
%NoSave
%Mem=1900MB
#P OB98/GEN NMR

erre ene a

0 1
  C     -320.577     -41.884     336.930
  O     -320.110     -43.230     336.832
  P     -318.619     -43.708     337.147
  C     -317.754     -45.007     335.041
  O     -318.344     -45.057     336.329
  C     -318.709     -45.424     333.905
  O     -319.571     -46.495     334.367
  C     -319.636     -44.252     333.555
  O     -319.197     -43.237     332.658
  C     -320.946     -44.908     333.153
  O     -321.042     -45.113     331.725
  C     -320.904     -46.252     333.872
  N     -325.822     -46.137     335.325
  C     -325.275     -45.925     334.071
  N     -326.137     -45.582     333.087
  N     -323.988     -46.005     333.827
  C     -323.232     -46.272     334.914
  C     -323.656     -46.480     336.214
  C     -325.073     -46.438     336.470
  O     -325.619     -46.635     337.557
  N     -322.603     -46.702     337.054
  C     -321.533     -46.588     336.272
  N     -321.872     -46.329     334.957
  O     -318.234     -43.691     338.589
  O     -317.715     -42.605     336.383
  H     -321.824     -45.661     331.560
  H     -316.903     -42.500     336.917
  H     -326.811     -46.072     335.465
  H     -320.513     -46.687     336.611
  H     -321.135     -47.092     333.191
  H     -321.798     -44.281     333.423
  H     -327.108     -45.384     333.245
  H     -319.863     -43.706     334.487
  H     -325.720     -45.216     332.227
  H     -318.158     -45.816     333.042
  H     -316.875     -45.682     335.061
  H     -317.353     -44.011     334.844
  P     -318.906     -41.711     333.022
  C     -319.763     -40.583     330.887
  O     -318.631     -40.923     331.653
  O     -317.443     -41.749     333.720
  O     -319.898     -41.071     333.941
  H     -317.278     -40.924     334.201
  H     -319.431     -40.341     329.867
  H     -320.249     -39.719     331.320
  H     -320.466     -41.422     330.838
  H     -321.612     -41.845     336.663
  H     -320.014     -41.262     336.266
  H     -320.454     -41.536     337.934

 3  4  5  6  7  8  9  10  11  12  23  26  30  31 0
 6-311+G(2d,p)
 ****
 33  35  36  37  38 0
 6-311+G(2d,p)
 ****
 1  2  13  14  15  16  17  18  19  20  21  22  24  25 0
 3-21G
 ****
 27  28  29  32  34  39  40  41  42  43  44  45  46  47  48  49 0
 3-21G
 ****


