%nproc=1
%NoSave
%Mem=1900MB
#P OB98/GEN NMR

erre ene a

0 1
  C     -833.946    -821.742    1404.076
  O     -832.578    -821.396    1404.013
  H     -834.189    -822.358    1403.214
  H     -834.573    -820.854    1404.067
  H     -834.142    -822.325    1404.984
  P     -831.969    -820.422    1405.139
  C     -831.926    -818.157    1403.879
  O     -831.170    -819.259    1404.360
  C     -831.360    -817.683    1402.545
  O     -829.995    -817.252    1402.768
  C     -831.325    -818.774    1401.463
  O     -831.992    -818.416    1400.259
  C     -829.875    -819.179    1401.412
  O     -829.460    -819.737    1400.178
  C     -829.157    -817.886    1401.798
  N     -827.812    -818.120    1402.367
  C     -826.791    -817.241    1401.993
  O     -826.930    -816.275    1401.247
  N     -825.538    -817.476    1402.540
  C     -825.263    -818.508    1403.384
  O     -824.122    -818.687    1403.847
  C     -826.349    -819.421    1403.729
  C     -827.563    -819.190    1403.205
  O     -831.200    -821.120    1406.211
  O     -833.236    -819.662    1405.735
  H     -828.497    -819.957    1400.258
  H     -833.472    -820.028    1406.597
  H     -824.838    -816.835    1402.285
  H     -826.124    -820.250    1404.388
  H     -828.399    -819.833    1403.438
  H     -829.033    -817.233    1400.933
  H     -829.680    -819.959    1402.170
  H     -831.937    -819.657    1401.809
  H     -831.930    -816.821    1402.199
  H     -831.870    -817.366    1404.628
  H     -832.976    -818.468    1403.762
  P     -833.534    -818.646    1399.929
  C     -833.276    -821.132    1399.022
  O     -833.654    -819.776    1398.799
  O     -834.353    -817.429    1399.752
  O     -834.085    -819.436    1401.240
  H     -835.021    -819.158    1401.339
  H     -833.443    -821.700    1398.131
  H     -833.862    -821.539    1399.820
  H     -832.239    -821.175    1399.283

 6  7  8  9  10  11  12  13  14  15  16  26  31  32  33  34  35 0
 6-311+G(2d,p)
 ****
 36  37 0
 6-311+G(2d,p)
 ****
 1  2  3  4  5  17  18  19  20  21  22  23  24  25 0
 3-21G
 ****
 27  28  29  30  38  39  40  41  42  43  44  45 0
 3-21G
 ****


