%nproc=1
%NoSave
%Mem=1900MB
#P OB98/GEN NMR

erre ene a

0 1
  C      336.168     146.497     -54.961
  O      336.291     147.842     -55.370
  H      335.141     146.332     -54.621
  H      336.843     146.282     -54.129
  H      336.372     145.822     -55.796
  P      337.747     148.413     -55.737
  C      336.982     148.902     -58.140
  O      337.488     149.466     -56.931
  C      336.368     149.973     -59.041
  O      335.081     150.380     -58.508
  C      337.228     151.236     -59.181
  O      337.303     151.610     -60.563
  C      336.460     152.285     -58.389
  O      336.756     153.611     -58.825
  C      335.018     151.818     -58.607
  N      334.083     152.381     -57.637
  C      333.640     153.686     -57.887
  O      334.059     154.308     -58.864
  N      332.763     154.266     -57.008
  C      332.395     153.621     -55.943
  N      331.527     154.254     -55.103
  C      332.874     152.263     -55.615
  C      333.701     151.705     -56.499
  O      338.772     147.370     -56.034
  O      338.134     149.358     -54.505
  H      336.032     154.206     -58.520
  H      339.113     149.493     -54.488
  H      332.545     151.770     -54.711
  H      334.097     150.706     -56.350
  H      334.667     152.077     -59.613
  H      336.720     152.210     -57.328
  H      338.237     151.116     -58.804
  H      336.164     149.524     -60.018
  H      331.224     155.189     -55.364
  H      336.235     148.144     -57.884
  H      331.179     153.851     -54.245
  H      337.814     148.425     -58.667
  P      338.665     152.333     -61.021
  C      338.984     150.665     -62.984
  O      338.881     152.025     -62.586
  O      339.801     151.461     -60.299
  O      338.746     153.769     -60.642
  H      340.114     151.913     -59.498
  H      339.124     150.613     -64.043
  H      338.087     150.146     -62.717
  H      339.818     150.211     -62.491

 6  7  8  9  10  11  12  13  14  15  16  26  30  31  32  33  35 0
 6-311+G(2d,p)
 ****
 37  38 0
 6-311+G(2d,p)
 ****
 1  2  3  4  5  17  18  19  20  21  22  23  24  25 0
 3-21G
 ****
 27  28  29  34  36  39  40  41  42  43  44  45  46 0
 3-21G
 ****


