%nproc=1
%NoSave
%Mem=1900MB
#P OB98/GEN NMR

erre ene a

0 1
  C     -161.477    -155.649      17.245
  O     -160.427    -155.193      16.416
  H     -161.077    -156.247      18.067
  H     -161.999    -154.783      17.662
  H     -162.188    -156.243      16.664
  P     -159.536    -156.313      15.692
  C     -158.298    -156.457      13.412
  O     -159.192    -155.725      14.239
  C     -158.401    -155.955      11.976
  O     -159.584    -156.493      11.344
  C     -158.516    -154.439      11.847
  O     -157.256    -153.796      11.944
  C     -159.090    -154.323      10.445
  O     -158.048    -154.530       9.474
  C     -160.086    -155.491      10.417
  N     -165.047    -155.810       9.208
  C     -163.939    -156.279       8.598
  N     -162.653    -156.147       8.980
  C     -162.567    -155.447      10.123
  C     -163.607    -154.901      10.854
  C     -164.905    -155.111      10.355
  N     -166.038    -154.623      10.968
  N     -163.126    -154.219      11.956
  C     -161.820    -154.383      11.904
  N     -161.431    -155.110      10.810
  O     -160.585    -157.480      15.372
  O     -158.355    -156.801      16.462
  H     -157.356    -153.867       9.660
  H     -160.115    -158.324      15.233
  H     -164.107    -156.832       7.677
  H     -161.116    -153.999      12.631
  H     -160.155    -155.960       9.429
  H     -159.526    -153.343      10.241
  H     -159.235    -154.028      12.566
  H     -157.529    -156.328      11.423
  H     -158.565    -157.517      13.444
  H     -166.892    -154.668      10.436
  H     -165.927    -153.977      11.737
  H     -157.278    -156.332      13.787
  P     -157.160    -152.506      12.892
  C     -155.228    -151.356      14.201
  O     -155.667    -152.497      13.473
  O     -158.051    -152.914      14.155
  O     -157.620    -151.231      12.263
  H     -158.414    -152.122      14.595
  H     -154.217    -151.503      14.519
  H     -155.855    -151.216      15.057
  H     -155.282    -150.490      13.574

 6  7  8  9  10  11  12  13  14  15  25  28  32  33  34  35 0
 6-311+G(2d,p)
 ****
 36  39  40 0
 6-311+G(2d,p)
 ****
 1  2  3  4  5  16  17  18  19  20  21  22  23  24 0
 3-21G
 ****
 26  27  29  30  31  37  38  41  42  43  44  45  46  47 0
 3-21G
 ****
 48 0
 3-21G
 ****


