%nproc=1
%NoSave
%Mem=1900MB
#P OB98/GEN NMR

erre ene a

0 1
  C     -140.097     150.751     316.264
  O     -141.174     150.044     315.649
  P     -141.536     148.613     316.283
  C     -143.759     147.368     316.787
  O     -143.078     148.301     315.962
  C     -145.279     147.524     316.649
  O     -145.777     148.670     317.378
  C     -145.739     147.710     315.211
  O     -145.779     146.450     314.550
  C     -147.120     148.334     315.399
  O     -148.117     147.324     315.635
  C     -146.921     149.200     316.657
  N     -149.084     153.488     315.019
  C     -149.568     152.185     315.002
  N     -150.806     152.012     314.498
  N     -148.886     151.161     315.435
  C     -147.658     151.488     315.916
  C     -147.088     152.735     316.015
  C     -147.844     153.872     315.523
  O     -147.475     155.038     315.540
  N     -145.849     152.673     316.610
  C     -145.628     151.379     316.754
  N     -146.726     150.619     316.413
  O     -141.512     148.881     317.856
  O     -140.577     147.536     315.898
  H     -148.990     147.751     315.719
  H     -140.742     148.440     318.260
  H     -149.642     154.239     314.660
  H     -144.721     150.947     317.130
  H     -147.779     149.125     317.335
  H     -147.436     148.884     314.514
  H     -151.389     152.769     314.144
  H     -145.070     148.412     314.688
  H     -151.183     151.075     314.478
  H     -145.742     146.625     317.081
  H     -143.462     147.504     317.831
  H     -143.447     146.356     316.501
  P     -144.703     146.178     313.396
  C     -143.826     144.050     312.190
  O     -144.855     144.642     312.950
  O     -143.305     146.213     314.191
  O     -144.713     147.173     312.285
  H     -142.654     146.727     313.677
  H     -143.788     142.981     312.411
  H     -142.842     144.488     312.417
  H     -144.043     144.181     311.123
  H     -139.949     151.683     315.760
  H     -139.204     150.165     316.201
  H     -140.331     150.934     317.292

 3  4  5  6  7  8  9  10  11  12  23  26  30  31 0
 6-311+G(2d,p)
 ****
 33  35  36  37  38 0
 6-311+G(2d,p)
 ****
 1  2  13  14  15  16  17  18  19  20  21  22  24  25 0
 3-21G
 ****
 27  28  29  32  34  39  40  41  42  43  44  45  46  47  48  49 0
 3-21G
 ****


