%nproc=1
%NoSave
%Mem=1900MB
#P OB98/GEN NMR

erre ene a

0 1
  C      546.406    -168.287     111.086
  O      546.878    -168.072     109.770
  H      547.245    -168.452     111.766
  H      545.854    -167.402     111.415
  H      545.734    -169.149     111.107
  P      547.751    -169.243     109.113
  C      545.635    -170.425     108.190
  O      546.799    -170.534     109.000
  C      545.864    -171.133     106.856
  O      546.150    -172.529     107.126
  C      544.672    -171.068     105.884
  O      545.073    -170.467     104.649
  C      544.322    -172.526     105.618
  O      543.990    -172.784     104.255
  C      545.579    -173.274     106.041
  N      545.310    -178.114     104.460
  C      545.992    -177.050     103.976
  N      546.108    -175.814     104.507
  C      545.443    -175.735     105.669
  C      544.725    -176.737     106.303
  C      544.651    -177.971     105.635
  N      543.913    -179.036     106.103
  N      544.171    -176.271     107.484
  C      544.515    -175.001     107.542
  N      545.269    -174.628     106.459
  O      548.778    -169.636     110.279
  O      548.462    -168.873     107.855
  H      543.206    -172.241     104.051
  H      549.684    -169.685     109.918
  H      546.510    -177.214     103.037
  H      544.213    -174.300     108.312
  H      546.323    -173.326     105.233
  H      543.464    -172.804     106.244
  H      543.815    -170.529     106.302
  H      546.758    -170.703     106.388
  H      545.421    -169.368     107.998
  H      543.820    -179.841     105.504
  H      543.332    -178.900     106.917
  H      544.787    -170.860     108.722
  P      543.946    -169.638     103.854
  C      544.226    -167.381     105.115
  O      543.396    -168.502     104.844
  O      542.727    -170.678     103.774
  O      544.376    -169.172     102.505
  H      542.175    -170.482     102.992
  H      543.722    -166.718     105.787
  H      544.441    -166.867     104.201
  H      545.140    -167.713     105.561

 6  7  8  9  10  11  12  13  14  15  25  28  32  33  34  35 0
 6-311+G(2d,p)
 ****
 36  39  40 0
 6-311+G(2d,p)
 ****
 1  2  3  4  5  16  17  18  19  20  21  22  23  24 0
 3-21G
 ****
 26  27  29  30  31  37  38  41  42  43  44  45  46  47  48 0
 3-21G
 ****


