%nproc=1
%NoSave
%Mem=1900MB
#P OB98/GEN NMR

erre ene a

0 1
  C     -599.824     133.088     122.478
  O     -599.875     131.991     121.586
  H     -600.557     132.933     123.270
  H     -600.063     134.013     121.945
  H     -598.827     133.164     122.926
  P     -598.850     132.024     120.352
  C     -598.037     129.563     120.646
  O     -598.724     130.507     119.844
  C     -598.590     128.152     120.411
  O     -599.866     128.030     121.101
  C     -598.855     127.827     118.930
  O     -598.705     126.410     118.752
  C     -600.321     128.209     118.791
  O     -600.864     127.692     117.594
  C     -600.851     127.653     120.109
  N     -605.847     126.592     120.367
  C     -604.784     125.838     120.021
  N     -603.482     126.180     119.987
  C     -603.321     127.457     120.385
  C     -604.303     128.344     120.778
  C     -605.627     127.871     120.757
  N     -606.715     128.639     121.104
  N     -603.750     129.569     121.115
  C     -602.455     129.415     120.928
  N     -602.150     128.160     120.485
  O     -597.440     132.309     121.053
  O     -599.158     133.020     119.289
  H     -601.704     128.144     117.365
  H     -597.244     133.264     121.029
  H     -605.011     124.809     119.730
  H     -601.701     130.180     121.096
  H     -600.911     126.558     120.097
  H     -600.440     129.295     118.746
  H     -598.185     128.361     118.240
  H     -597.908     127.421     120.865
  H     -598.173     129.843     121.705
  H     -596.968     129.583     120.407
  H     -607.632     128.233     121.047
  H     -606.569     129.599     121.382
  P     -598.007     125.864     117.408
  C     -595.614     126.735     118.011
  O     -596.446     125.626     117.703
  O     -597.974     127.175     116.485
  O     -598.719     124.746     116.718
  H     -597.995     126.916     115.549
  H     -594.613     126.395     118.177
  H     -595.977     127.219     118.893
  H     -595.625     127.426     117.195

 6  7  8  9  10  11  12  13  14  15  25  28  32  33  34  35 0
 6-311+G(2d,p)
 ****
 36  37  40 0
 6-311+G(2d,p)
 ****
 1  2  3  4  5  16  17  18  19  20  21  22  23  24 0
 3-21G
 ****
 26  27  29  30  31  38  39 41  42  43  44  45  46  47  48 0
 3-21G
 ****


