%nproc=1
%NoSave
%Mem=1900MB
#P OB98/GEN NMR

erre ene a

0 1
  C      745.471     288.987      44.482
  O      745.182     288.994      43.094
  H      745.405     290.011      44.860
  H      746.487     288.615      44.645
  H      744.753     288.361      45.019
  P      744.996     287.565      42.399
  C      747.227     287.626      41.017
  O      745.802     287.602      41.008
  C      747.759     287.690      39.588
  O      747.257     286.589      38.803
  C      747.311     288.915      38.811
  O      747.961     290.098      39.234
  C      747.678     288.500      37.390
  O      749.053     288.775      37.095
  C      747.412     286.976      37.419
  N      746.260     286.615      36.607
  C      746.534     286.382      35.252
  O      747.685     286.470      34.831
  N      745.488     286.102      34.411
  C      744.273     286.078      34.878
  N      743.277     285.820      33.986
  C      743.943     286.316      36.298
  C      744.976     286.580      37.100
  O      743.465     287.601      41.933
  O      745.348     286.400      43.262
  H      749.201     288.474      36.172
  H      743.223     288.407      41.454
  H      742.918     286.276      36.633
  H      744.832     286.769      38.156
  H      748.281     286.427      37.035
  H      747.082     289.038      36.648
  H      746.218     289.021      38.863
  H      748.854     287.619      39.627
  H      743.543     285.715      33.012
  H      747.624     286.741      41.529
  H      742.296     285.855      34.218
  H      747.543     288.507      41.583
  P      747.367     291.544      38.881
  C      749.667     292.442      38.140
  O      748.577     292.589      39.044
  O      746.125     291.924      39.608
  O      747.195     291.487      37.284
  H      748.016     291.317      36.793
  H      750.404     293.189      38.346
  H      749.315     292.555      37.136
  H      750.100     291.471      38.259

 6  7  8  9  10  11  12  13  14  15  16  26  30  31  32  33  35 0
 6-311+G(2d,p)
 ****
 37  38 0
 6-311+G(2d,p)
 ****
 1  2  3  4  5  17  18  19  20  21  22  23  24  25 0
 3-21G
 ****
 27  28  29  34  36  39  40  41  42  43  44  45  46 0
 3-21G
 ****


