%nproc=1
%NoSave
%Mem=1900MB
#P OB98/GEN NMR

erre ene a

0 1
  C     -209.307    -211.364     180.940
  O     -209.968    -212.209     181.858
  H     -208.381    -211.006     181.397
  H     -209.936    -210.502     180.703
  H     -209.055    -211.904     180.023
  P     -211.262    -213.017     181.371
  C     -209.865    -214.778     180.100
  O     -210.800    -214.535     181.140
  C     -209.187    -216.141     180.286
  O     -208.276    -216.054     181.424
  C     -210.164    -217.298     180.578
  O     -209.571    -218.491     180.044
  C     -210.154    -217.306     182.095
  O     -210.762    -218.451     182.636
  C     -208.651    -217.109     182.337
  N     -208.276    -216.766     183.703
  C     -208.815    -217.530     184.733
  O     -209.583    -218.478     184.573
  N     -208.443    -217.165     186.000
  C     -207.594    -216.149     186.328
  O     -207.272    -215.890     187.481
  C     -207.063    -215.374     185.197
  C     -207.417    -215.716     183.956
  O     -212.020    -212.409     180.240
  O     -212.161    -213.120     182.694
  H     -212.879    -212.461     182.653
  H     -210.653    -218.442     183.611
  H     -208.820    -217.711     186.760
  H     -206.395    -214.554     185.424
  H     -207.033    -215.168     183.102
  H     -208.104    -218.008     182.031
  H     -210.725    -216.457     182.476
  H     -211.151    -217.149     180.130
  H     -208.575    -216.355     179.403
  H     -209.111    -213.985     180.125
  H     -210.383    -214.745     179.136
  P     -210.354    -219.517     179.090
  C     -210.160    -218.229     176.852
  O     -209.759    -219.370     177.606
  O     -211.841    -219.391     179.155
  O     -209.877    -220.973     179.552
  H     -210.570    -221.627     179.339
  H     -209.694    -218.256     175.889
  H     -209.864    -217.339     177.367
  H     -211.223    -218.236     176.733

 6  7  8  9  10  11  12  13  14  15  16  27  31  32  33  34  35 0
 6-311+G(2d,p)
 ****
 36  37 0
 6-311+G(2d,p)
 ****
 1  2  3  4  5  17  18  19  20  21  22  23  24  25 0
 3-21G
 ****
 26  28  29  30  38  39  40  41  42  43  44  45 0
 3-21G
 ****


