%nproc=1
%NoSave
%Mem=1900MB
#P OB98/GEN NMR

erre ene a

0 1
  C      428.640      46.554     806.185
  O      429.048      45.441     806.950
  H      429.448      46.845     805.521
  H      428.392      47.396     806.842
  H      427.761      46.294     805.567
  P      427.985      44.862     808.011
  C      428.611      46.257     810.114
  O      427.694      46.067     809.045
  C      427.857      46.322     811.450
  O      426.808      47.311     811.391
  C      427.207      45.011     811.873
  O      428.149      44.146     812.511
  C      426.124      45.513     812.829
  O      426.671      45.791     814.132
  C      425.671      46.805     812.134
  N      420.665      47.361     811.697
  C      421.512      47.708     812.741
  N      420.935      48.217     813.847
  N      422.809      47.540     812.698
  C      423.243      46.989     811.538
  C      422.504      46.620     810.433
  C      421.075      46.833     810.472
  O      420.277      46.621     809.567
  N      423.310      46.100     809.446
  C      424.520      46.120     809.973
  N      424.532      46.624     811.242
  O      428.845      43.832     808.879
  O      426.780      44.219     807.422
  H      427.381      46.445     814.047
  H      428.263      43.114     809.193
  H      419.685      47.539     811.778
  H      425.425      45.783     809.468
  H      425.389      47.576     812.861
  H      425.339      44.772     812.963
  H      419.955      48.060     814.051
  H      426.737      44.514     811.003
  H      421.539      48.450     814.616
  H      428.590      46.656     812.212
  H      429.157      47.193     809.961
  H      429.331      45.419     810.132
  P      427.979      42.574     812.285
  C      426.352      42.258     814.280
  O      426.543      42.179     812.881
  O      429.008      41.926     813.329
  O      428.250      42.105     810.882
  H      429.191      40.993     813.095
  H      425.351      41.965     814.520
  H      426.518      43.263     814.606
  H      427.042      41.605     814.772

 6  7  8  9  10  11  12  13  14  15  26  29  33  34 0
 6-311+G(2d,p)
 ****
 36  38  39  40  41 0
 6-311+G(2d,p)
 ****
 1  2  3  4  5  16  17  18  19  20  21  22  23  24  25 0
 3-21G
 ****
 27  28  30  31  32  35  37  42  43  44  45  46  47 0
 3-21G
 ****
 48  49 0
 3-21G
 ****


