%nproc=1
%NoSave
%Mem=1900MB
#P OB98/GEN NMR

erre ene a

0 1
  C     -426.939    -930.622    -898.020
  O     -428.133    -931.299    -897.690
  H     -427.034    -929.577    -897.720
  H     -426.767    -930.674    -899.100
  H     -426.085    -931.068    -897.490
  P     -428.187    -932.861    -898.030
  C     -428.569    -934.045    -895.740
  O     -427.644    -933.624    -896.720
  C     -428.160    -933.514    -894.350
  O     -428.271    -932.072    -894.350
  C     -429.060    -934.032    -893.210
  O     -428.255    -934.086    -892.010
  C     -430.068    -932.921    -893.100
  O     -430.814    -933.018    -891.880
  C     -429.151    -931.714    -893.270
  N     -431.612    -927.662    -891.360
  C     -430.946    -928.679    -890.750
  N     -430.311    -929.716    -891.340
  C     -430.367    -929.618    -892.680
  C     -430.993    -928.638    -893.430
  C     -431.641    -927.610    -892.700
  N     -432.324    -926.577    -893.300
  N     -430.861    -928.889    -894.770
  C     -430.151    -930.007    -894.840
  N     -429.847    -930.480    -893.600
  O     -427.006    -933.049    -899.100
  O     -429.501    -933.359    -898.550
  H     -431.323    -933.846    -891.870
  H     -427.367    -933.004    -900.000
  H     -430.951    -928.661    -889.680
  H     -429.838    -930.501    -895.740
  H     -428.558    -931.529    -892.380
  H     -430.812    -932.976    -893.910
  H     -429.480    -935.029    -893.400
  H     -427.101    -933.762    -894.180
  H     -428.599    -935.147    -895.730
  H     -429.576    -933.669    -895.990
  H     -432.768    -925.900    -892.710
  H     -432.370    -926.554    -894.300
  P     -427.237    -935.312    -891.790
  C     -424.892    -934.149    -891.600
  O     -425.816    -934.918    -892.390
  O     -427.796    -936.380    -892.860
  O     -427.248    -935.895    -890.410
  H     -427.579    -937.281    -892.550
  H     -423.997    -933.981    -892.161
  H     -424.656    -934.685    -890.705
  H     -425.336    -933.209    -891.346

 6  7  8  9  10  11  12  13  14  15  25  28  32  33  34  35 0
 6-311+G(2d,p)
 ****
 36  37  40 0
 6-311+G(2d,p)
 ****
 1  2  3  4  5  16  17  18  19  20  21  22  23  24 0
 3-21G
 ****
 26  27  29  30  31  38  39 41  42  43  44  45  46  47  48 0
 3-21G
 ****


