%nproc=1
%NoSave
%Mem=1900MB
#P OB98/GEN NMR

erre ene a

0 1
  C      116.639    -486.577    1593.805
  O      116.168    -487.749    1594.426
  H      117.180    -485.983    1594.554
  H      115.811    -485.978    1593.427
  H      117.327    -486.831    1592.990
  P      115.229    -488.739    1593.580
  C      116.713    -490.793    1594.126
  O      116.160    -489.974    1593.112
  C      117.937    -491.545    1593.613
  O      119.062    -490.618    1593.502
  C      118.405    -492.700    1594.540
  O      119.013    -493.693    1593.711
  C      119.452    -491.981    1595.394
  O      120.247    -492.912    1596.094
  C      120.129    -491.121    1594.326
  N      120.922    -490.050    1594.918
  C      122.188    -490.412    1595.375
  O      122.588    -491.571    1595.299
  N      122.990    -489.454    1595.947
  C      122.524    -488.254    1596.097
  N      123.363    -487.336    1596.685
  C      121.173    -487.829    1595.686
  C      120.427    -488.774    1595.090
  O      114.436    -488.100    1592.474
  O      114.268    -489.407    1594.668
  H      120.680    -493.534    1595.460
  H      113.379    -489.019    1594.608
  H      120.834    -486.822    1595.847
  H      119.424    -488.573    1594.748
  H      120.779    -491.734    1593.677
  H      118.958    -491.362    1596.132
  H      117.582    -493.130    1595.117
  H      117.736    -491.925    1592.590
  H      124.259    -487.657    1596.979
  H      115.938    -491.517    1594.429
  H      123.099    -486.380    1596.879
  H      116.993    -490.188    1595.010
  P      118.173    -494.855    1592.971
  C      118.696    -494.013    1590.577
  O      117.668    -494.312    1591.537
  O      117.079    -495.438    1593.814
  O      119.250    -495.971    1592.585
  H      118.822    -496.852    1592.600
  H      118.247    -493.664    1589.671
  H      119.264    -494.897    1590.376
  H      119.342    -493.256    1590.970

 6  7  8  9  10  11  12  13  14  15  16  26  30  31  32  33  35 0
 6-311+G(2d,p)
 ****
 37  38 0
 6-311+G(2d,p)
 ****
 1  2  3  4  5  17  18  19  20  21  22  23  24  25 0
 3-21G
 ****
 27  28  29  34  36  39  40  41  42  43  44  45  46 0
 3-21G
 ****


