%nproc=1
%NoSave
%Mem=1900MB
#P OB98/GEN NMR

erre ene a

0 1
  C     -617.905     172.627     377.683
  O     -616.707     172.099     377.146
  H     -617.716     172.944     378.712
  H     -618.688     171.865     377.687
  H     -618.227     173.494     377.098
  P     -616.781     171.542     375.646
  C     -615.289     173.522     374.937
  O     -616.517     172.835     374.726
  C     -615.546     174.899     375.551
  O     -616.137     174.709     376.864
  C     -614.277     175.732     375.732
  O     -614.569     177.101     375.450
  C     -613.944     175.570     377.205
  O     -613.182     176.664     377.714
  C     -615.336     175.431     377.818
  N     -615.115     175.993     382.882
  C     -615.287     176.885     381.881
  N     -615.350     176.646     380.558
  C     -615.264     175.324     380.308
  C     -615.090     174.304     381.220
  C     -615.006     174.680     382.571
  N     -614.807     173.788     383.595
  N     -615.005     173.085     380.572
  C     -615.146     173.366     379.290
  N     -615.289     174.711     379.080
  O     -617.999     170.754     375.305
  O     -615.397     170.748     375.523
  H     -612.309     176.663     377.274
  H     -614.658     171.257     375.907
  H     -615.375     177.925     382.183
  H     -615.135     172.641     378.483
  H     -615.812     176.401     378.013
  H     -613.361     174.654     377.353
  H     -613.456     175.390     375.092
  H     -616.286     175.427     374.941
  H     -614.757     173.640     373.985
  H     -614.775     174.139     384.542
  H     -614.741     172.802     383.387
  H     -614.675     172.915     375.604
  P     -613.645     177.877     374.395
  C     -615.482     179.244     373.204
  O     -614.520     178.198     373.086
  O     -612.300     177.281     374.138
  O     -613.500     179.326     375.070
  H     -612.595     179.661     374.911
  H     -615.997     179.362     372.273
  H     -614.986     180.158     373.455
  H     -616.185     178.997     373.972

 6  7  8  9  10  11  12  13  14  15  25  28  32  33  34  35 0
 6-311+G(2d,p)
 ****
 36  39  40 0
 6-311+G(2d,p)
 ****
 1  2  3  4  5  16  17  18  19  20  21  22  23  24 0
 3-21G
 ****
 26  27  29  30  31  37  38  41  42  43  44  45  46  47 0
 3-21G
 ****
 48 0
 3-21G
 ****


