%nproc=1
%NoSave
%Mem=1900MB
#P OB98/GEN NMR

erre ene a

0 1
  C       81.394    -509.164     347.183
  O       80.987    -509.872     346.026
  P       80.163    -511.238     346.164
  C       80.699    -513.636     347.041
  O       81.174    -512.332     346.760
  C       81.650    -514.376     347.991
  O       82.891    -514.594     347.287
  C       82.003    -513.618     349.260
  O       82.525    -514.546     350.217
  C       83.124    -512.712     348.778
  O       83.937    -512.230     349.847
  C       83.854    -513.608     347.744
  N       84.357    -512.821     346.603
  C       85.488    -512.039     346.824
  O       86.104    -512.047     347.888
  N       85.839    -511.190     345.820
  C       85.139    -511.020     344.651
  O       85.274    -510.052     343.903
  C       84.098    -512.027     344.377
  C       83.739    -512.859     345.364
  O       79.969    -511.690     344.638
  O       78.863    -511.116     346.878
  H       84.554    -512.954     350.089
  H       79.089    -511.407     344.322
  H       86.569    -510.522     346.031
  H       83.627    -512.025     343.402
  H       82.956    -513.578     345.203
  H       84.709    -514.130     348.201
  H       82.687    -511.843     348.275
  H       81.179    -513.047     349.697
  H       81.215    -515.361     348.229
  H       80.579    -514.180     346.103
  H       79.708    -513.577     347.494
  P       81.832    -514.599     351.659
  C       81.466    -512.876     353.539
  O       81.707    -513.079     352.158
  O       82.439    -515.543     352.644
  O       80.316    -514.988     351.329
  H       79.876    -515.338     352.123
  H       81.897    -511.919     353.836
  H       81.916    -513.675     354.145
  H       80.391    -512.855     353.717
  H       81.928    -508.284     346.893
  H       82.029    -509.787     347.777
  H       80.532    -508.886     347.753

 3  4  5  6  7  8  9  10  11  12  13  23  28  29  30  31  32 0
 6-311+G(2d,p)
 ****
 33  34 0
 6-311+G(2d,p)
 ****
 1  2  14  15  16  17  18  19  20  21  22  24  25  26  27 0
 3-21G
 ****
 35  36  37  38  39  40  41  42  43  44  45 0
 3-21G
 ****


