%nproc=1
%NoSave
%Mem=1900MB
#P OB98/GEN NMR

erre ene a

0 1
  C      -33.126     250.143     -44.362
  O      -33.519     249.046     -43.556
  P      -32.693     248.782     -42.207
  C      -31.585     246.479     -42.730
  O      -31.424     247.883     -42.597
  C      -30.274     245.851     -43.202
  O      -29.950     246.299     -44.536
  C      -29.073     246.229     -42.342
  O      -29.034     245.474     -41.142
  C      -27.914     245.935     -43.284
  O      -27.566     244.541     -43.253
  C      -28.513     246.315     -44.657
  N      -28.025     247.604     -45.141
  C      -26.883     247.561     -45.935
  O      -26.295     246.513     -46.206
  N      -26.417     248.766     -46.381
  C      -26.933     249.993     -46.067
  O      -26.436     251.044     -46.452
  C      -28.125     249.977     -45.198
  C      -28.601     248.805     -44.775
  O      -33.627     247.780     -41.378
  O      -32.367     250.011     -41.429
  H      -26.953     244.391     -44.000
  H      -33.554     247.973     -40.423
  H      -25.608     248.756     -46.980
  H      -28.559     250.931     -44.930
  H      -29.465     248.773     -44.123
  H      -28.263     245.550     -45.401
  H      -27.012     246.494     -43.020
  H      -29.091     247.305     -42.126
  H      -30.398     244.760     -43.227
  H      -32.375     246.270     -43.457
  H      -31.885     246.062     -41.764
  P      -27.940     245.907     -40.047
  C      -26.805     243.584     -40.425
  O      -26.666     244.990     -40.347
  O      -28.595     245.295     -38.719
  O      -27.706     247.379     -40.007
  H      -29.091     244.479     -38.897
  H      -27.761     243.299     -40.870
  H      -26.728     243.158     -39.422
  H      -25.996     243.184     -41.042
  H      -33.760     250.198     -45.222
  H      -32.111     250.011     -44.674
  H      -33.211     251.048     -43.798

 3  4  5  6  7  8  9  10  11  12  13  23  28  29  30  31  32 0
 6-311+G(2d,p)
 ****
 33  34 0
 6-311+G(2d,p)
 ****
 1  2  14  15  16  17  18  19  20  21  22  24  25  26 0
 3-21G
 ****
 27  35  36  37  38  39  40  41  42  43  44  45 0
 3-21G
 ****


