%nproc=1
%NoSave
%Mem=1900MB
#P OB98/GEN NMR

erre ene a

0 1
  C      393.069      90.886     -13.011
  O      393.377      90.693     -14.397
  P      392.584      89.524     -15.162
  C      394.349      87.646     -14.909
  O      393.056      88.113     -14.555
  C      394.840      86.564     -13.940
  O      396.195      86.148     -14.268
  C      394.854      87.013     -12.475
  O      394.548      85.871     -11.666
  C      396.303      87.396     -12.248
  O      396.630      87.413     -10.861
  C      397.001      86.322     -13.084
  N      401.756      86.839     -11.298
  C      400.609      86.448     -10.711
  N      399.374      86.357     -11.251
  C      399.406      86.685     -12.552
  C      400.498      87.117     -13.289
  C      401.722      87.194     -12.607
  N      402.889      87.620     -13.198
  N      400.125      87.411     -14.587
  C      398.829      87.161     -14.627
  N      398.358      86.695     -13.434
  O      393.232      89.544     -16.626
  O      391.107      89.734     -15.217
  H      396.406      86.540     -10.483
  H      392.600      89.917     -17.265
  H      400.691      86.168      -9.659
  H      398.194      87.312     -15.486
  H      397.058      85.359     -12.559
  H      396.495      88.393     -12.659
  H      394.161      87.829     -12.238
  H      394.192      85.685     -14.047
  H      395.060      88.477     -14.907
  H      403.719      87.672     -12.633
  H      402.868      87.930     -14.158
  H      394.326      87.275     -15.940
  P      393.013      85.683     -11.244
  C      393.127      86.914      -8.960
  O      392.655      86.922     -10.295
  O      393.046      84.434     -10.239
  O      392.085      85.453     -12.391
  H      392.184      83.984     -10.235
  H      393.457      87.923      -8.699
  H      393.961      86.221      -8.823
  H      392.308      86.623      -8.297
  H      393.661      91.688     -12.622
  H      393.285      89.989     -12.469
  H      392.031      91.125     -12.906

 3  4  5  6  7  8  9  10  11  12  22  25  29  30  31  32 0
 6-311+G(2d,p)
 ****
 33  36  37 0
 6-311+G(2d,p)
 ****
 1  2  13  14  15  16  17  18  19  20  21  23  24  26 0
 3-21G
 ****
 27  28  34  35  38  39  40  41  42  43  44  45  46  47  48 0
 3-21G
 ****


