%nproc=1
%NoSave
%Mem=1900MB
#P OB98/GEN NMR

erre ene a

0 1
  C      508.799      -9.542     296.104
  O      509.658      -8.794     296.978
  P      511.246      -9.004     297.055
  C      511.931      -7.048     295.490
  O      511.889      -8.462     295.683
  C      513.276      -6.630     294.887
  O      513.476      -7.285     293.606
  C      513.401      -5.138     294.569
  O      513.558      -4.353     295.734
  C      514.616      -5.145     293.637
  O      515.842      -5.121     294.375
  C      514.463      -6.487     292.893
  N      514.089      -6.327     291.496
  C      513.012      -7.093     291.039
  O      512.483      -7.928     291.785
  N      512.586      -6.920     289.751
  C      513.225      -6.121     288.957
  N      512.736      -5.977     287.692
  C      514.446      -5.395     289.358
  C      514.819      -5.541     290.622
  O      511.663     -10.394     297.398
  O      511.770      -7.957     298.151
  H      512.597      -8.286     298.550
  H      516.528      -5.522     293.794
  H      514.978      -4.773     288.650
  H      515.694      -5.023     291.009
  H      515.394      -7.057     292.959
  H      514.622      -4.266     292.973
  H      512.512      -4.810     294.011
  H      514.071      -6.942     295.574
  H      511.893      -6.476     287.453
  H      511.806      -6.566     296.460
  H      513.154      -5.369     287.000
  H      511.094      -6.751     294.843
  P      512.935      -2.873     295.706
  C      510.748      -3.461     296.981
  O      511.339      -3.018     295.775
  O      513.209      -2.376     294.203
  O      513.524      -1.929     296.703
  H      513.451      -1.431     294.211
  H      509.737      -3.059     297.042
  H      511.319      -3.137     297.859
  H      510.696      -4.555     296.972
  H      507.787      -9.220     296.237
  H      508.875     -10.584     296.335
  H      509.095      -9.380     295.089

 3  4  5  6  7  8  9  10  11  12  13  24  27  28  29  30  32 0
 6-311+G(2d,p)
 ****
 34  35 0
 6-311+G(2d,p)
 ****
 1  2  14  15  16  17  18  19  20  21  22  23  25  26 0
 3-21G
 ****
 31  33  36  37  38  39  40  41  42  43  44  45  46 0
 3-21G
 ****


