%nproc=1
%NoSave
%Mem=1900MB
#P OB98/GEN NMR

erre ene a

0 1
  C     -288.136     183.161     -24.078
  O     -289.152     184.019     -23.587
  H     -287.283     183.208     -23.397
  H     -287.809     183.474     -25.074
  H     -288.503     182.132     -24.111
  P     -290.395     184.344     -24.550
  C     -289.461     186.740     -24.776
  O     -289.918     185.579     -25.462
  C     -289.920     188.016     -25.473
  O     -289.204     188.211     -26.714
  C     -291.389     188.019     -25.867
  O     -292.291     188.031     -24.785
  C     -291.440     189.143     -26.889
  O     -291.542     190.430     -26.282
  C     -290.059     188.993     -27.578
  N     -290.166     188.403     -28.910
  C     -290.973     189.080     -29.811
  O     -291.601     190.104     -29.534
  N     -291.075     188.514     -31.061
  C     -290.494     187.346     -31.461
  O     -290.639     186.886     -32.586
  C     -289.678     186.656     -30.446
  C     -289.550     187.204     -29.238
  O     -291.707     184.573     -23.857
  O     -290.417     183.118     -25.578
  H     -291.727     191.068     -26.992
  H     -291.280     183.073     -26.064
  H     -291.647     189.003     -31.735
  H     -289.215     185.722     -30.729
  H     -288.949     186.719     -28.472
  H     -289.576     189.975     -27.685
  H     -292.285     189.042     -27.578
  H     -291.598     187.092     -26.421
  H     -289.683     188.868     -24.821
  H     -288.362     186.711     -24.761
  H     -289.828     186.720     -23.742
  P     -293.769     187.430     -24.851
  C     -294.867     189.736     -25.428
  O     -294.661     188.374     -25.795
  O     -294.363     186.961     -23.567
  O     -293.553     186.131     -25.791
  H     -294.174     185.446     -25.479
  H     -295.480     190.215     -26.163
  H     -293.923     190.236     -25.370
  H     -295.353     189.779     -24.476

 6  7  8  9  10  11  12  13  14  15  16  26  31  32  33  34  35 0
 6-311+G(2d,p)
 ****
 36  37 0
 6-311+G(2d,p)
 ****
 1  2  3  4  5  17  18  19  20  21  22  23  24  25 0
 3-21G
 ****
 27  28  29  30  38  39  40  41  42  43  44  45 0
 3-21G
 ****


