%nproc=1
%NoSave
%Mem=1900MB
#P OB98/GEN NMR

erre ene a

0 1
  C      387.511    -750.917    -734.125
  O      387.508    -749.639    -734.768
  P      388.878    -748.800    -734.771
  C      389.593    -749.627    -737.129
  O      389.913    -749.522    -735.754
  C      390.586    -750.556    -737.839
  O      390.726    -751.811    -737.152
  C      390.183    -750.898    -739.268
  O      390.566    -749.886    -740.182
  C      391.013    -752.159    -739.507
  O      392.372    -751.787    -739.835
  C      390.965    -752.856    -738.136
  N      389.332    -757.282    -739.964
  C      390.469    -756.546    -740.284
  N      391.290    -757.077    -741.217
  N      390.767    -755.395    -739.726
  C      389.856    -755.001    -738.800
  C      388.703    -755.633    -738.413
  C      388.373    -756.898    -739.041
  O      387.388    -757.582    -738.820
  N      388.031    -754.923    -737.456
  C      388.794    -753.854    -737.243
  N      389.913    -753.857    -738.054
  O      389.481    -749.096    -733.318
  O      388.691    -747.326    -734.997
  H      392.745    -751.388    -739.027
  H      390.035    -748.354    -733.028
  H      389.150    -758.158    -740.427
  H      388.584    -753.081    -736.521
  H      391.907    -753.343    -737.882
  H      390.641    -752.751    -740.343
  H      391.146    -757.973    -741.643
  H      389.119    -751.138    -739.334
  H      392.145    -756.570    -741.433
  H      391.565    -750.049    -737.857
  H      389.618    -748.637    -737.594
  H      388.556    -749.989    -737.232
  P      389.416    -748.925    -740.769
  C      389.936    -746.968    -739.137
  O      389.005    -747.946    -739.564
  O      388.167    -749.917    -740.904
  O      389.736    -748.275    -742.065
  H      387.592    -749.653    -741.651
  H      389.435    -746.290    -738.436
  H      390.298    -746.383    -739.991
  H      390.777    -747.448    -738.625
  H      386.539    -751.357    -734.201
  H      387.768    -750.797    -733.093
  H      388.228    -751.553    -734.600

 3  4  5  6  7  8  9  10  11  12  23  26  30  31 0
 6-311+G(2d,p)
 ****
 33  35  36  37  38 0
 6-311+G(2d,p)
 ****
 1  2  13  14  15  16  17  18  19  20  21  22  24  25 0
 3-21G
 ****
 27  28  29  32  34  39  40  41  42  43  44  45  46  47  48  49 0
 3-21G
 ****


