%nproc=1
%NoSave
%Mem=1900MB
#P OB98/GEN NMR

erre ene a

0 1
  C      604.742    -533.969     -93.389
  O      605.604    -535.093     -93.236
  P      604.975    -536.476     -92.707
  C      603.973    -538.636     -93.710
  O      604.565    -537.363     -93.982
  C      603.931    -539.498     -94.986
  O      603.224    -538.766     -96.033
  C      605.309    -539.839     -95.574
  O      605.957    -541.019     -95.124
  C      604.951    -540.085     -97.049
  O      604.461    -541.430     -97.214
  C      603.812    -539.094     -97.311
  N      604.230    -536.718    -101.828
  C      603.742    -537.934    -101.485
  N      603.665    -538.486    -100.260
  C      604.158    -537.653     -99.324
  C      604.689    -536.390     -99.520
  C      604.724    -535.920    -100.846
  N      605.227    -534.689    -101.201
  N      605.098    -535.844     -98.333
  C      604.829    -536.770     -97.422
  N      604.249    -537.878     -97.972
  O      603.929    -536.352     -91.657
  O      606.258    -537.246     -92.156
  H      605.247    -541.995     -97.326
  H      606.009    -537.741     -91.355
  H      603.353    -538.529    -102.304
  H      605.048    -536.682     -96.364
  H      603.021    -539.529     -97.921
  H      605.807    -539.970     -97.712
  H      605.986    -538.985     -95.505
  H      603.372    -540.422     -94.777
  H      602.960    -538.488     -93.338
  H      605.255    -534.453    -102.173
  H      605.658    -534.112    -100.486
  H      604.546    -539.102     -92.910
  P      606.392    -541.187     -93.581
  C      604.977    -541.829     -91.470
  O      605.155    -541.921     -92.868
  O      606.842    -539.926     -92.908
  O      607.507    -542.326     -93.652
  H      607.164    -543.208     -93.891
  H      603.985    -542.208     -91.219
  H      605.045    -540.777     -91.144
  H      605.735    -542.428     -90.948
  H      605.306    -533.133     -93.746
  H      604.302    -533.726     -92.444
  H      603.970    -534.205     -94.092

 3  4  5  6  7  8  9  10  11  12  22  25  29  30  31  32 0
 6-311+G(2d,p)
 ****
 33  36  37 0
 6-311+G(2d,p)
 ****
 1  2  13  14  15  16  17  18  19  20  21  23  24  26 0
 3-21G
 ****
 27  28  34  35  38  39  40  41  42  43  44  45  46  47  48 0
 3-21G
 ****


