%nproc=1
%NoSave
%Mem=1900MB
#P OB98/GEN NMR

erre ene a

0 1
  C       49.282     -75.327      18.326
  O       49.411     -74.467      19.462
  P       50.072     -75.109      20.781
  C       51.957     -73.318      20.901
  O       51.623     -74.694      20.789
  C       53.449     -73.104      20.656
  O       53.832     -73.570      19.349
  C       53.885     -71.646      20.700
  O       54.042     -71.184      22.033
  C       55.232     -71.720      19.994
  O       56.249     -72.138      20.921
  C       54.991     -72.808      18.935
  N       57.075     -71.476      14.511
  C       57.666     -71.990      15.648
  N       58.997     -72.206      15.588
  N       57.011     -72.269      16.743
  C       55.682     -72.031      16.650
  C       54.979     -71.523      15.582
  C       55.721     -71.189      14.384
  O       55.253     -70.700      13.362
  N       53.639     -71.431      15.858
  C       53.525     -71.910      17.081
  N       54.740     -72.274      17.610
  O       50.110     -76.672      20.437
  O       49.316     -74.828      22.036
  H       56.343     -71.424      21.583
  H       50.085     -77.196      21.260
  H       57.628     -71.272      13.696
  H       52.595     -72.016      17.622
  H       55.834     -73.507      18.869
  H       55.551     -70.755      19.587
  H       59.551     -72.081      14.753
  H       53.199     -71.012      20.124
  H       59.442     -72.616      16.399
  H       54.003     -73.682      21.409
  H       51.697     -72.953      21.896
  H       51.356     -72.748      20.185
  P       52.782     -70.456      22.709
  C       52.244     -72.501      24.211
  O       51.808     -71.635      23.182
  O       52.026     -69.804      21.458
  O       53.137     -69.440      23.742
  H       51.542     -69.004      21.736
  H       52.727     -71.945      25.020
  H       52.942     -73.236      23.802
  H       51.376     -73.027      24.618
  H       48.832     -74.787      17.519
  H       48.668     -76.165      18.581
  H       50.250     -75.672      18.028

 3  4  5  6  7  8  9  10  11  12  23  26  30  31  33  0
 6-311+G(2d,p)
 ****
 35  36  37  38 0
 6-311+G(2d,p)
 ****
 1  2  13  14  15  16  17  18  19  20  21  22  24  25  27  28  29 0
 3-21G
 ****
 32  34  39  40  41  42  43  44  45  46  47  48  49 0
 3-21G
 ****


