%nproc=1
%NoSave
%Mem=1900MB
#P OB98/GEN NMR

erre ene a

0 1
  C     -112.044     148.844     -10.742
  O     -111.916     147.698      -9.930
  H     -111.843     148.565     -11.780
  H     -111.315     149.598     -10.440
  H     -113.055     149.258     -10.683
  P     -112.428     147.756      -8.412
  C     -111.321     148.188      -6.121
  O     -111.118     147.985      -7.512
  C     -110.289     149.179      -5.579
  O     -108.961     148.600      -5.761
  C     -110.306     150.543      -6.303
  O     -109.975     151.567      -5.355
  C     -109.174     150.370      -7.297
  O     -108.697     151.605      -7.770
  C     -108.172     149.574      -6.467
  N     -107.148     148.961      -7.307
  C     -106.001     149.709      -7.549
  O     -105.821     150.843      -7.105
  N     -105.082     149.142      -8.391
  C     -105.245     147.979      -9.082
  O     -104.422     147.556      -9.882
  C     -106.501     147.255      -8.827
  C     -107.380     147.767      -7.961
  O     -113.297     146.627      -7.969
  O     -113.164     149.173      -8.299
  H     -109.436     152.133      -8.127
  H     -113.784     149.175      -7.545
  H     -104.239     149.666      -8.568
  H     -106.669     146.334      -9.374
  H     -108.323     147.271      -7.763
  H     -107.687     150.215      -5.719
  H     -109.519     149.791      -8.162
  H     -111.264     150.767      -6.774
  H     -110.438     149.304      -4.500
  H     -111.213     147.224      -5.613
  H     -112.335     148.569      -5.951
  P     -110.822     152.926      -5.251
  C     -110.772     155.360      -6.072
  O     -110.131     154.089      -6.121
  O     -111.152     153.335      -3.851
  O     -112.169     152.614      -6.057
  H     -112.935     152.930      -5.538
  H     -110.233     156.055      -6.682
  H     -110.790     155.712      -5.062
  H     -111.774     155.268      -6.436

 6  7  8  9  10  11  12  13  14  15  16  26  31  32  33  34  35 0
 6-311+G(2d,p)
 ****
 36  37 0
 6-311+G(2d,p)
 ****
 1  2  3  4  5  17  18  19  20  21  22  23  24  25 0
 3-21G
 ****
 27  28  29  30  38  39  40  41  42  43  44  45 0
 3-21G
 ****


