%nproc=1
%NoSave
%Mem=1900MB
#P OB98/GEN NMR

erre ene a

0 1
  C       92.913    -184.472    -256.468
  O       91.781    -184.832    -255.703
  H       92.799    -184.880    -257.477
  H       93.816    -184.893    -256.021
  H       93.007    -183.385    -256.542
  P       91.561    -184.143    -254.274
  C       92.628    -184.345    -251.935
  O       92.571    -184.862    -253.257
  C       93.681    -185.086    -251.108
  O       93.308    -186.497    -251.037
  C       95.104    -185.021    -251.699
  O       96.026    -185.040    -250.601
  C       95.157    -186.320    -252.480
  O       96.468    -186.652    -252.856
  C       94.452    -187.249    -251.488
  N       94.057    -188.527    -252.066
  C       95.070    -189.410    -252.422
  O       96.267    -189.181    -252.259
  N       94.661    -190.583    -252.997
  C       93.370    -190.948    -253.247
  O       93.059    -192.022    -253.745
  C       92.344    -189.960    -252.873
  C       92.728    -188.813    -252.309
  O       90.147    -184.058    -253.806
  O       92.210    -182.689    -254.454
  H       91.508    -182.040    -254.649
  H       96.473    -187.471    -253.397
  H       95.383    -191.236    -253.262
  H       91.313    -190.209    -253.079
  H       91.999    -188.062    -252.024
  H       95.083    -187.431    -250.612
  H       94.578    -186.230    -253.403
  H       95.274    -184.125    -252.304
  H       93.662    -184.701    -250.081
  H       91.642    -184.469    -251.476
  H       92.870    -183.277    -251.976
  P       96.948    -183.789    -250.200
  C       98.938    -182.484    -251.190
  O       98.175    -183.682    -251.230
  O       97.376    -183.794    -248.768
  O       96.066    -182.491    -250.518
  H       96.255    -181.805    -249.848
  H       99.720    -182.535    -251.918
  H       99.365    -182.365    -250.216
  H       98.304    -181.650    -251.406

 6  7  8  9  10  11  12  13  14  15  16  27  31  32  33  34  35 0
 6-311+G(2d,p)
 ****
 36  37 0
 6-311+G(2d,p)
 ****
 1  2  3  4  5  17  18  19  20  21  22  23  24  25 0
 3-21G
 ****
 26  28  29  30  38  39  40  41  42  43  44  45 0
 3-21G
 ****


