%nproc=1
%NoSave
%Mem=1900MB
#P OB98/GEN NMR

erre ene a

0 1
  C      140.872     -92.067    -232.070
  O      140.486     -92.042    -233.448
  P      138.965     -91.662    -233.781
  C      138.402     -93.609    -235.416
  O      138.611     -92.212    -235.243
  C      138.852     -94.040    -236.813
  O      140.271     -94.273    -236.856
  C      138.220     -95.345    -237.268
  O      136.891     -95.131    -237.700
  C      139.165     -95.784    -238.380
  O      138.759     -95.267    -239.658
  C      140.519     -95.177    -237.946
  N      141.497     -96.189    -237.583
  C      142.671     -96.206    -238.342
  O      142.820     -95.411    -239.272
  N      143.631     -97.141    -238.046
  C      143.424     -97.996    -237.093
  N      144.409     -98.900    -236.849
  C      142.187     -98.028    -236.286
  C      141.274     -97.106    -236.583
  O      139.020     -90.075    -233.987
  O      137.996     -92.044    -232.710
  H      139.439     -95.573    -240.293
  H      138.187     -89.667    -233.692
  H      142.058     -98.765    -235.508
  H      140.334     -97.057    -236.042
  H      140.944     -94.576    -238.760
  H      139.190     -96.874    -238.475
  H      138.243     -96.077    -236.451
  H      138.603     -93.237    -237.521
  H      145.242     -98.851    -237.423
  H      137.348     -93.852    -235.271
  H      144.351     -99.614    -236.137
  H      138.958     -94.147    -234.640
  P      135.836     -96.315    -237.482
  C      134.656     -96.109    -239.752
  O      134.557     -95.901    -238.357
  O      135.318     -96.034    -235.991
  O      136.331     -97.713    -237.646
  H      134.732     -96.752    -235.699
  H      133.665     -95.988    -240.195
  H      135.015     -97.119    -239.967
  H      135.330     -95.370    -240.191
  H      141.905     -92.333    -231.994
  H      140.278     -92.787    -231.546
  H      140.721     -91.099    -231.640

 3  4  5  6  7  8  9  10  11  12  13  21  23  27  28  29  30  32 0
 6-311+G(2d,p)
 ****
 34  35 0
 6-311+G(2d,p)
 ****
 1  2  14  15  16  17  18  19  20  22  24  25  26 0
 3-21G
 ****
 31  33  36  37  38  39  40  41  42  43  44  45  46 0
 3-21G
 ****


