%nproc=1
%NoSave
%Mem=1900MB
#P OB98/GEN NMR

erre ene a

0 1
  C     -142.889    -195.611     293.716
  O     -142.536    -196.598     292.752
  P     -141.736    -197.888     293.274
  C     -142.519    -199.428     291.334
  O     -141.431    -198.757     291.960
  C     -142.312    -199.503     289.827
  O     -142.411    -198.178     289.256
  C     -140.950    -200.025     289.399
  O     -140.888    -201.447     289.440
  C     -140.870    -199.516     287.965
  O     -141.599    -200.407     287.094
  C     -141.586    -198.155     288.061
  N     -141.159    -193.134     287.525
  C     -142.265    -193.950     287.383
  N     -143.425    -193.332     287.076
  N     -142.231    -195.249     287.520
  C     -141.013    -195.724     287.865
  C     -139.837    -195.017     288.034
  C     -139.877    -193.588     287.835
  O     -138.911    -192.821     287.880
  N     -138.809    -195.847     288.407
  C     -139.361    -197.043     288.490
  N     -140.685    -197.020     288.143
  O     -142.864    -198.741     294.027
  O     -140.577    -197.599     294.161
  H     -141.118    -201.260     287.092
  H     -142.455    -199.314     294.700
  H     -141.241    -192.136     287.429
  H     -138.836    -197.937     288.790
  H     -142.262    -198.003     287.207
  H     -139.844    -199.459     287.589
  H     -143.544    -192.331     287.087
  H     -140.150    -199.573     289.995
  H     -144.259    -193.913     287.006
  H     -143.114    -200.117     289.396
  H     -143.443    -198.872     291.540
  H     -142.611    -200.436     291.758
  P     -139.513    -202.123     288.955
  C     -139.815    -204.380     290.213
  O     -139.798    -203.693     288.969
  O     -138.537    -201.898     290.200
  O     -138.962    -201.554     287.691
  H     -137.605    -201.881     289.900
  H     -140.253    -203.757     290.998
  H     -138.796    -204.658     290.489
  H     -140.419    -205.288     290.111
  H     -143.414    -194.813     293.234
  H     -142.002    -195.228     294.175
  H     -143.516    -196.050     294.463

 3  4  5  6  7  8  9  10  11  12  23  26  30  31  33  0
 6-311+G(2d,p)
 ****
 35  36  37  38 0
 6-311+G(2d,p)
 ****
 1  2  13  14  15  16  17  18  19  20  21  22  24  25  27  28  29 0
 3-21G
 ****
 32  34  39  40  41  42  43  44  45  46  47  48  49 0
 3-21G
 ****


