%nproc=1
%NoSave
%Mem=1900MB
#P OB98/GEN NMR

erre ene a

0 1
  C      458.862    -157.668    -151.068
  O      457.703    -157.250    -151.760
  H      458.687    -158.670    -150.669
  H      459.076    -156.993    -150.236
  H      459.718    -157.708    -151.747
  P      457.671    -155.778    -152.390
  C      456.466    -154.727    -150.364
  O      457.648    -154.749    -151.159
  C      456.644    -153.767    -149.182
  O      456.883    -152.444    -149.721
  C      455.400    -153.704    -148.284
  O      455.691    -153.938    -146.907
  C      454.768    -152.368    -148.654
  O      453.979    -151.786    -147.638
  C      455.971    -151.525    -149.091
  N      455.631    -150.433    -150.001
  C      455.075    -149.287    -149.440
  O      454.872    -149.111    -148.241
  N      454.752    -148.292    -150.329
  C      454.918    -148.335    -151.679
  O      454.614    -147.410    -152.423
  C      455.487    -149.581    -152.214
  C      455.811    -150.559    -151.363
  O      456.622    -155.539    -153.423
  O      459.142    -155.582    -152.992
  H      454.552    -151.652    -146.856
  H      459.117    -155.700    -153.960
  H      454.360    -147.452    -149.931
  H      455.623    -149.654    -153.282
  H      456.237    -151.491    -151.722
  H      456.471    -151.092    -148.224
  H      454.111    -152.527    -149.517
  H      454.698    -154.509    -148.533
  H      457.536    -154.062    -148.618
  H      456.285    -155.743    -150.004
  H      455.617    -154.406    -150.976
  P      455.750    -155.381    -146.224
  C      453.256    -155.764    -145.515
  O      454.320    -156.075    -146.401
  O      456.360    -155.425    -144.864
  O      456.706    -156.220    -147.216
  H      457.194    -156.859    -146.656
  H      452.387    -156.323    -145.791
  H      453.040    -154.718    -145.571
  H      453.539    -156.017    -144.515

 6  7  8  9  10  11  12  13  14  15  16  26  31  32  33  34  35 0
 6-311+G(2d,p)
 ****
 36  37 0
 6-311+G(2d,p)
 ****
 1  2  3  4  5  17  18  19  20  21  22  23  24  25 0
 3-21G
 ****
 27  28  29  30  38  39  40  41  42  43  44  45 0
 3-21G
 ****


