%nproc=1
%NoSave
%Mem=1900MB
#P OB98/GEN NMR

erre ene a

0 1
  C       27.501      63.532    -102.962
  O       26.502      64.440    -103.384
  H       27.537      63.534    -101.869
  H       28.475      63.844    -103.347
  H       27.269      62.521    -103.309
  P       26.164      64.469    -104.948
  C       27.070      66.279    -106.620
  O       27.361      65.252    -105.680
  C       27.362      67.645    -106.005
  O       28.706      67.710    -105.488
  C       27.300      68.794    -106.997
  O       25.985      69.090    -107.410
  C       27.955      69.898    -106.182
  O       27.035      70.460    -105.236
  C       29.077      69.115    -105.455
  N       30.388      69.342    -106.045
  C       31.092      70.450    -105.557
  O       30.603      71.158    -104.677
  N       32.317      70.742    -106.103
  C       32.809      69.984    -107.031
  N       34.022      70.333    -107.535
  C       32.114      68.791    -107.554
  C       30.918      68.536    -107.026
  O       24.957      65.514    -105.027
  O       25.871      63.139    -105.561
  H       26.694      69.711    -104.707
  H       25.155      66.370    -104.611
  H       32.566      68.183    -108.323
  H       30.340      67.682    -107.353
  H       29.125      69.404    -104.397
  H       28.306      70.719    -106.809
  H       27.946      68.585    -107.860
  H       26.666      67.797    -105.169
  H       34.461      71.168    -107.168
  H       26.031      66.219    -106.954
  H       34.488      69.838    -108.281
  H       27.708      66.115    -107.495
  P       25.717      69.864    -108.789
  C       24.934      72.315    -108.774
  O       26.002      71.416    -108.496
  O       24.399      69.585    -109.427
  O       26.975      69.453    -109.690
  H       27.841      69.706    -109.322
  H       25.239      73.314    -108.541
  H       24.084      72.054    -108.179
  H       24.676      72.253    -109.811

 6  7  8  9  10  11  12  13  14  15  16  26  30  31  32  33  35 0
 6-311+G(2d,p)
 ****
 37  38 0
 6-311+G(2d,p)
 ****
 1  2  3  4  5  17  18  19  20  21  22  23  24  25 0
 3-21G
 ****
 27  28  29  34  36  39  40  41  42  43  44  45  46 0
 3-21G
 ****


