%nproc=1
%NoSave
%Mem=1900MB
#P OB98/GEN NMR

erre ene a

0 1
  C      538.862    1253.108     128.388
  O      539.457    1252.329     129.431
  P      540.452    1251.115     129.198
  C      542.571    1252.325     130.145
  O      541.934    1251.708     129.049
  C      544.055    1252.631     129.893
  O      544.210    1253.346     128.632
  C      544.615    1253.565     130.979
  O      545.066    1253.013     132.197
  C      545.652    1254.433     130.268
  O      546.978    1253.894     130.361
  C      545.188    1254.388     128.794
  N      545.193    1258.097     125.252
  C      545.994    1256.967     125.347
  N      546.955    1256.812     124.404
  N      545.858    1256.068     126.289
  C      544.953    1256.374     127.225
  C      544.102    1257.462     127.252
  C      544.191    1258.429     126.174
  O      543.503    1259.424     126.035
  N      543.309    1257.454     128.356
  C      543.662    1256.372     129.016
  N      544.659    1255.675     128.364
  O      540.006    1250.110     128.191
  O      540.489    1250.391     130.641
  H      547.559    1254.358     129.747
  H      540.605    1249.439     130.467
  H      545.309    1258.738     124.495
  H      543.240    1256.030     129.968
  H      546.013    1254.132     128.121
  H      545.677    1255.423     130.701
  H      547.158    1257.526     123.724
  H      543.802    1254.251     131.236
  H      547.669    1256.105     124.585
  H      544.637    1251.715     129.773
  H      542.473    1251.633     130.999
  H      542.040    1253.248     130.432
  P      544.182    1252.794     133.518
  C      544.228    1250.232     133.193
  O      543.423    1251.396     133.373
  O      542.990    1253.864     133.395
  O      544.909    1252.955     134.820
  H      542.553    1253.974     134.255
  H      543.611    1249.406     132.800
  H      544.630    1249.945     134.182
  H      545.066    1250.435     132.504
  H      538.235    1253.861     128.818
  H      538.275    1252.472     127.758
  H      539.631    1253.574     127.808

 3  4  5  6  7  8  9  10  11  12  23  26  30  31 0
 6-311+G(2d,p)
 ****
 33  35  36  37  38 0
 6-311+G(2d,p)
 ****
 1  2  13  14  15  16  17  18  19  20  21  22  24  25 0
 3-21G
 ****
 27  28  29  32  34  39  40  41  42  43  44  45  46  47  48  49 0
 3-21G
 ****


