%nproc=1
%NoSave
%Mem=1900MB
#P OB98/GEN NMR

erre ene a

0 1
  C     -136.577     -42.467    -562.378
  O     -135.782     -42.002    -563.442
  H     -137.104     -41.617    -561.932
  H     -135.947     -42.929    -561.606
  H     -137.323     -43.187    -562.725
  P     -135.061     -43.071    -564.396
  C     -133.507     -45.104    -564.073
  O     -134.185     -44.024    -563.451
  C     -133.093     -46.146    -563.034
  O     -132.078     -45.599    -562.153
  C     -134.233     -46.582    -562.116
  O     -135.102     -47.481    -562.782
  C     -133.445     -47.189    -560.956
  O     -133.014     -48.523    -561.281
  C     -132.242     -46.228    -560.865
  N     -132.392     -45.211    -559.805
  C     -131.431     -45.242    -558.795
  O     -130.525     -46.060    -558.750
  N     -131.565     -44.259    -557.831
  C     -132.591     -43.364    -557.737
  O     -132.691     -42.546    -556.827
  C     -133.590     -43.424    -558.815
  C     -133.452     -44.328    -559.781
  O     -134.329     -42.509    -565.573
  O     -136.258     -44.030    -564.864
  H     -133.820     -49.066    -561.339
  H     -136.554     -43.786    -565.762
  H     -130.889     -44.265    -557.086
  H     -134.424     -42.724    -558.771
  H     -134.185     -44.383    -560.578
  H     -131.324     -46.777    -560.665
  H     -134.038     -47.267    -560.039
  H     -134.781     -45.709    -561.745
  H     -132.668     -47.006    -563.552
  H     -132.602     -44.719    -564.568
  H     -134.159     -45.556    -564.836
  P     -136.643     -47.611    -562.345
  C     -137.970     -48.491    -560.347
  O     -136.677     -48.303    -560.898
  O     -137.538     -48.245    -563.372
  O     -137.088     -46.098    -562.050
  H     -137.656     -45.762    -562.760
  H     -137.885     -48.956    -559.387
  H     -138.547     -49.116    -560.996
  H     -138.454     -47.543    -560.242

 6  7  8  9  10  11  12  13  14  15  16  26  31  32  33  34  35 0
 6-311+G(2d,p)
 ****
 36  37 0
 6-311+G(2d,p)
 ****
 1  2  3  4  5  17  18  19  20  21  22  23  24  25 0
 3-21G
 ****
 27  28  29  30  38  39  40  41  42  43  44  45 0
 3-21G
 ****


