%nproc=1
%NoSave
%Mem=1900MB
#P OB98/GEN NMR

erre ene a

0 1
  C     -578.039     430.508    -122.758
  O     -578.557     430.550    -124.079
  P     -577.827     431.483    -125.156
  C     -578.125     433.959    -125.915
  O     -578.283     432.998    -124.880
  C     -578.324     435.371    -125.366
  O     -579.692     435.516    -124.868
  C     -577.383     435.737    -124.216
  O     -577.082     437.134    -124.312
  C     -578.243     435.490    -122.989
  O     -577.769     436.150    -121.827
  C     -579.591     435.990    -123.508
  N     -580.720     435.534    -122.697
  C     -581.279     436.449    -121.809
  O     -580.881     437.605    -121.664
  N     -582.296     435.969    -121.017
  C     -582.729     434.680    -120.971
  O     -583.561     434.289    -120.151
  C     -582.105     433.757    -121.928
  C     -581.149     434.214    -122.741
  O     -578.560     431.112    -126.528
  O     -576.338     431.296    -125.247
  H     -576.914     435.749    -121.592
  H     -578.014     430.494    -127.046
  H     -582.722     436.618    -120.375
  H     -582.452     432.728    -121.933
  H     -580.654     433.556    -123.443
  H     -579.600     437.082    -123.556
  H     -578.273     434.411    -122.772
  H     -576.455     435.154    -124.203
  H     -578.209     436.082    -126.196
  H     -578.868     433.767    -126.694
  H     -577.134     433.851    -126.371
  P     -576.196     437.807    -123.148
  C     -576.686     439.584    -121.291
  O     -577.193     438.686    -122.261
  O     -575.364     438.887    -123.987
  O     -575.328     436.826    -122.417
  H     -575.918     439.362    -124.642
  H     -575.740     440.028    -121.623
  H     -576.534     439.053    -120.357
  H     -577.415     440.377    -121.135
  H     -578.632     429.845    -122.163
  H     -578.067     431.489    -122.333
  H     -577.028     430.158    -122.782

 3  4  5  6  7  8  9  10  11  12  13  23  28  29  30  31  32 0
 6-311+G(2d,p)
 ****
 33  34 0
 6-311+G(2d,p)
 ****
 1  2  14  15  16  17  18  19  20  21  22  24  25  26 0
 3-21G
 ****
 27  35  36  37  38  39  40  41  42  43  44  45 0
 3-21G
 ****


