%nproc=1
%NoSave
%Mem=1900MB
#P OB98/GEN NMR

erre ene a

0 1
  C      150.800    -104.661     393.362
  O      150.502    -103.786     392.266
  P      150.836    -104.349     390.796
  C      152.453    -102.502     389.945
  O      151.165    -103.095     389.844
  C      152.455    -101.057     389.439
  O      151.758    -100.993     388.170
  C      151.781    -100.047     390.376
  O      152.511     -98.814     390.321
  C      150.434     -99.807     389.716
  O      149.861     -98.558     390.102
  C      150.824     -99.903     388.245
  N      148.954     -99.070     383.619
  C      150.210     -98.792     384.126
  N      151.079     -98.186     383.289
  N      150.576     -99.083     385.348
  C      149.615     -99.718     386.062
  C      148.339    -100.055     385.668
  C      147.932     -99.690     384.329
  O      146.820     -99.860     383.836
  N      147.655    -100.689     386.677
  C      148.511    -100.729     387.676
  N      149.711    -100.143     387.357
  O      149.413    -104.870     390.276
  O      151.852    -105.441     390.787
  H      150.348     -97.861     389.618
  H      149.476    -105.811     390.024
  H      148.717     -98.804     382.678
  H      148.310    -101.140     388.658
  H      151.338     -98.993     387.908
  H      149.741    -100.606     390.007
  H      150.883     -97.995     382.319
  H      151.692    -100.381     391.413
  H      152.018     -98.017     383.630
  H      153.497    -100.763     389.252
  H      153.165    -103.089     389.358
  H      152.774    -102.539     390.992
  P      153.380     -98.440     391.617
  C      153.158     -95.890     391.140
  O      154.017     -96.998     391.317
  O      154.628     -99.435     391.526
  O      152.641     -98.574     392.910
  H      154.989     -99.613     392.415
  H      152.127     -96.117     391.428
  H      153.177     -95.594     390.087
  H      153.520     -95.061     391.751
  H      150.538    -104.182     394.282
  H      151.846    -104.888     393.363
  H      150.239    -105.566     393.258

 3  4  5  6  7  8  9  10  11  12  23  26  30  31  33  0
 6-311+G(2d,p)
 ****
 35  36  37  38 0
 6-311+G(2d,p)
 ****
 1  2  13  14  15  16  17  18  19  20  21  22  24  25  27  28  29 0
 3-21G
 ****
 32  34  39  40  41  42  43  44  45  46  47  48  49 0
 3-21G
 ****


