%nproc=1
%NoSave
%Mem=1900MB
#P OB98/GEN NMR

erre ene a

0 1
  C       61.238     276.362     -87.156
  O       60.695     275.976     -88.410
  P       60.588     277.121     -89.538
  C       58.336     277.965     -88.515
  O       59.663     278.276     -88.919
  C       57.586     279.258     -88.188
  O       57.898     279.698     -86.853
  C       57.920     280.424     -89.115
  O       57.184     280.328     -90.319
  C       57.532     281.618     -88.242
  O       56.113     281.850     -88.295
  C       57.967     281.154     -86.848
  N       60.595     284.439     -84.030
  C       59.239     284.391     -84.315
  N       58.470     285.330     -83.719
  N       58.690     283.498     -85.099
  C       59.579     282.632     -85.632
  C       60.946     282.588     -85.443
  C       61.529     283.542     -84.530
  O       62.703     283.560     -84.170
  N       61.519     281.576     -86.171
  C       60.501     280.994     -86.769
  N       59.305     281.583     -86.466
  O       59.670     276.438     -90.652
  O       61.894     277.602     -90.076
  H       55.885     282.592     -87.702
  H       60.217     276.079     -91.377
  H       60.953     285.134     -83.404
  H       60.581     280.134     -87.422
  H       57.285     281.505     -86.066
  H       58.011     282.544     -88.581
  H       58.821     286.056     -83.124
  H       58.996     280.452     -89.319
  H       57.477     285.310     -83.919
  H       56.506     279.036     -88.223
  H       58.369     277.336     -87.623
  H       57.832     277.420     -89.314
  P       57.976     280.593     -91.691
  C       57.089     283.020     -91.965
  O       58.210     282.173     -91.800
  O       56.871     280.283     -92.814
  O       59.184     279.746     -91.878
  H       57.293     279.874     -93.586
  H       57.315     283.991     -91.514
  H       56.196     282.605     -91.488
  H       56.895     283.158     -93.032
  H       61.255     275.517     -86.499
  H       60.634     277.134     -86.728
  H       62.235     276.725     -87.296

 3  4  5  6  7  8  9  10  11  12  23  26  30  31 0
 6-311+G(2d,p)
 ****
 33  35  36  37  38 0
 6-311+G(2d,p)
 ****
 1  2  13  14  15  16  17  18  19  20  21  22  24  25 0
 3-21G
 ****
 27  28  29  32  34  39  40  41  42  43  44  45  46  47  48  49 0
 3-21G
 ****


