%nproc=1
%NoSave
%Mem=1900MB
#P OB98/GEN NMR

erre ene a

0 1
  C     -141.071     -31.388    -191.308
  O     -139.897     -31.491    -192.087
  H     -140.786     -31.318    -190.254
  H     -141.686     -32.283    -191.448
  H     -141.647     -30.500    -191.577
  P     -139.997     -31.283    -193.671
  C     -138.729     -29.842    -195.395
  O     -138.689     -30.479    -194.128
  C     -137.667     -28.738    -195.491
  O     -137.940     -27.735    -194.476
  C     -136.261     -29.283    -195.208
  O     -135.246     -28.532    -195.867
  C     -136.122     -29.091    -193.700
  O     -134.768     -29.037    -193.268
  C     -136.896     -27.788    -193.495
  N     -136.686     -25.406    -188.988
  C     -135.783     -25.375    -190.033
  N     -134.683     -24.607    -189.858
  N     -135.936     -26.051    -191.142
  C     -137.041     -26.833    -191.150
  C     -137.995     -26.969    -190.167
  C     -137.839     -26.186    -188.957
  O     -138.593     -26.197    -187.995
  N     -138.973     -27.864    -190.538
  C     -138.613     -28.273    -191.731
  N     -137.457     -27.662    -192.162
  O     -141.155     -30.184    -193.835
  O     -140.297     -32.519    -194.467
  H     -134.771     -28.926    -192.300
  H     -141.544     -30.234    -194.728
  H     -136.537     -24.843    -188.165
  H     -139.146     -28.993    -192.333
  H     -136.233     -26.920    -193.663
  H     -136.590     -29.946    -193.201
  H     -134.438     -24.230    -188.950
  H     -136.155     -30.338    -195.472
  H     -133.882     -24.810    -190.462
  H     -137.731     -28.234    -196.464
  H     -139.734     -29.422    -195.515
  H     -138.594     -30.574    -196.193
  P     -134.743     -29.019    -197.309
  C     -132.869     -28.199    -198.984
  O     -133.355     -28.317    -197.669
  O     -135.786     -28.358    -198.321
  O     -134.678     -30.514    -197.465
  H     -136.298     -29.047    -198.782
  H     -131.926     -27.694    -198.972
  H     -133.565     -27.639    -199.573
  H     -132.746     -29.174    -199.408

 6  7  8  9  10  11  12  13  14  15  26  29  33  34 0
 6-311+G(2d,p)
 ****
 36  38  39  40  41 0
 6-311+G(2d,p)
 ****
 1  2  3  4  5  16  17  18  19  20  21  22  23  24  25 0
 3-21G
 ****
 27  28  30  31  32  35  37  42  43  44  45  46  47 0
 3-21G
 ****
 48  49 0
 3-21G
 ****


