%nproc=1
%NoSave
%Mem=1900MB
#P OB98/GEN NMR

erre ene a

0 1
  C     -178.419      -5.031     -29.141
  O     -178.206      -5.792     -27.967
  P     -179.460      -6.536     -27.298
  C     -179.414      -8.675     -28.823
  O     -180.081      -7.489     -28.431
  C     -180.429      -9.785     -29.115
  O     -179.723     -10.946     -29.630
  C     -181.236     -10.245     -27.893
  O     -182.553     -10.576     -28.353
  C     -180.495     -11.492     -27.451
  O     -181.300     -12.358     -26.665
  C     -180.079     -12.073     -28.806
  N     -178.964     -13.016     -28.717
  C     -179.255     -14.375     -28.775
  O     -180.395     -14.829     -28.873
  N     -178.178     -15.220     -28.686
  C     -176.880     -14.850     -28.480
  O     -175.957     -15.649     -28.390
  C     -176.640     -13.403     -28.379
  C     -177.671     -12.569     -28.511
  O     -180.508      -5.335     -27.185
  O     -179.140      -7.217     -26.012
  H     -180.455      -4.712     -27.928
  H     -181.967     -12.763     -27.249
  H     -178.362     -16.209     -28.763
  H     -175.624     -13.070     -28.201
  H     -177.520     -11.499     -28.438
  H     -180.936     -12.563     -29.283
  H     -179.623     -11.205     -26.852
  H     -181.295      -9.475     -27.119
  H     -181.102      -9.438     -29.910
  H     -178.750      -9.000     -28.023
  H     -178.801      -8.468     -29.707
  P     -183.800     -10.237     -27.394
  C     -183.601      -7.667     -27.849
  O     -183.634      -8.721     -26.909
  O     -183.387     -11.075     -26.088
  O     -185.135     -10.631     -27.934
  H     -182.467     -10.924     -25.816
  H     -183.821      -6.731     -27.331
  H     -184.340      -7.812     -28.638
  H     -182.601      -7.600     -28.288
  H     -177.493      -4.602     -29.461
  H     -179.122      -4.251     -28.938
  H     -178.803      -5.665     -29.912

 3  4  5  6  7  8  9  10  11  12  13  24  28  29  30  31  32 0
 6-311+G(2d,p)
 ****
 33  34 0
 6-311+G(2d,p)
 ****
 1  2  14  15  16  17  18  19  20  21  22  23  25  26  27 0
 3-21G
 ****
 35  36  37  38  39  40  41  42  43  44  45 0
 3-21G
 ****


