%nproc=1
%NoSave
%Mem=1900MB
#P OB98/GEN NMR

erre ene a

0 1
  C      -17.935     112.298    -136.257
  O      -17.383     111.507    -137.315
  P      -17.472     109.912    -137.154
  C      -19.909     109.167    -137.628
  O      -18.605     109.364    -138.155
  C      -20.962     109.100    -138.743
  O      -21.227     110.425    -139.284
  C      -20.550     108.211    -139.923
  O      -21.740     107.603    -140.447
  C      -20.027     109.212    -140.937
  O      -20.010     108.664    -142.253
  C      -21.003     110.365    -140.709
  N      -20.270     113.205    -144.890
  C      -20.817     111.986    -144.710
  N      -20.955     111.285    -143.563
  C      -20.496     111.997    -142.520
  C      -19.900     113.252    -142.549
  C      -19.792     113.868    -143.808
  N      -19.211     115.102    -143.994
  N      -19.511     113.631    -141.275
  C      -19.858     112.623    -140.501
  N      -20.483     111.628    -141.201
  O      -18.128     109.729    -135.705
  O      -16.150     109.219    -137.247
  H      -19.433     107.867    -142.245
  H      -17.457     109.404    -135.076
  H      -21.189     111.501    -145.612
  H      -19.679     112.561    -139.437
  H      -21.969     110.200    -141.202
  H      -19.004     109.507    -140.678
  H      -19.813     107.440    -139.680
  H      -21.898     108.727    -138.310
  H      -20.167     109.981    -136.940
  H      -19.143     115.458    -144.935
  H      -18.808     115.580    -143.201
  H      -19.913     108.253    -137.021
  P      -21.957     106.052    -140.108
  C      -22.802     105.984    -137.651
  O      -23.139     105.991    -139.029
  O      -20.650     105.661    -139.266
  O      -22.130     105.182    -141.311
  H      -20.470     104.704    -139.350
  H      -23.511     106.619    -137.112
  H      -21.788     106.364    -137.475
  H      -22.875     104.965    -137.271
  H      -17.812     113.336    -136.486
  H      -17.429     112.072    -135.342
  H      -18.977     112.077    -136.153

 3  4  5  6  7  8  9  10  11  12  22  25  29  30  31  32 0
 6-311+G(2d,p)
 ****
 33  36  37 0
 6-311+G(2d,p)
 ****
 1  2  13  14  15  16  17  18  19  20  21  23  24  26 0
 3-21G
 ****
 27  28  34  35  38  39  40  41  42  43  44  45  46  47  48 0
 3-21G
 ****


