%nproc=1
%NoSave
%Mem=1900MB
#P OB98/GEN NMR

erre ene a

0 1
  C     -518.592    -270.567     190.418
  O     -517.788    -269.920     191.378
  H     -518.676    -269.919     189.541
  H     -519.591    -270.736     190.829
  H     -518.156    -271.521     190.106
  P     -517.124    -270.797     192.542
  C     -517.913    -269.395     194.563
  O     -518.021    -270.632     193.866
  C     -518.824    -269.358     195.791
  O     -520.206    -269.381     195.372
  C     -518.619    -270.565     196.713
  O     -517.588    -270.408     197.670
  C     -519.984    -270.679     197.386
  O     -520.049    -269.867     198.573
  C     -520.953    -270.155     196.322
  N     -525.322    -272.766     195.835
  C     -524.964    -271.849     196.806
  N     -525.871    -271.635     197.783
  N     -523.816    -271.225     196.816
  C     -522.974    -271.614     195.832
  C     -523.210    -272.528     194.824
  C     -524.510    -273.161     194.778
  O     -524.880    -273.966     193.931
  N     -522.101    -272.698     194.029
  C     -521.179    -271.959     194.606
  N     -521.679    -271.223     195.652
  O     -515.800    -269.974     192.920
  O     -516.781    -272.210     192.172
  H     -520.954    -269.934     198.931
  H     -515.105    -270.593     193.212
  H     -526.229    -273.194     195.862
  H     -520.147    -271.883     194.282
  H     -521.701    -269.485     196.762
  H     -520.176    -271.712     197.700
  H     -526.732    -272.153     197.869
  H     -518.451    -271.475     196.126
  H     -525.575    -271.116     198.612
  H     -518.668    -268.413     196.327
  H     -518.205    -268.616     193.856
  H     -516.877    -269.207     194.849
  P     -517.127    -271.629     198.589
  C     -518.026    -270.504     200.788
  O     -518.007    -271.617     199.922
  O     -515.680    -271.172     199.099
  O     -517.088    -272.961     197.918
  H     -514.979    -271.591     198.567
  H     -518.676    -270.706     201.614
  H     -518.380    -269.645     200.257
  H     -517.037    -270.317     201.150

 6  7  8  9  10  11  12  13  14  15  26  29  33  34 0
 6-311+G(2d,p)
 ****
 36  38  39  40  41 0
 6-311+G(2d,p)
 ****
 1  2  3  4  5  16  17  18  19  20  21  22  23  24  25 0
 3-21G
 ****
 27  28  30  31  32  35  37  42  43  44  45  46  47 0
 3-21G
 ****
 48  49 0
 3-21G
 ****


