%nproc=1
%NoSave
%Mem=1900MB
#P OB98/GEN NMR

erre ene a

0 1
  C     -130.406    -113.501    -399.031
  O     -131.806    -113.205    -399.104
  P     -132.587    -112.981    -397.720
  C     -131.875    -111.537    -395.675
  O     -132.102    -111.594    -397.077
  C     -131.438    -110.125    -395.266
  O     -130.197    -109.760    -395.907
  C     -132.430    -109.052    -395.680
  O     -133.533    -109.027    -394.789
  C     -131.578    -107.789    -395.636
  O     -131.610    -107.172    -394.336
  C     -130.160    -108.320    -395.957
  N     -129.662    -107.850    -397.237
  C     -128.931    -106.651    -397.205
  O     -128.759    -106.052    -396.138
  N     -128.434    -106.155    -398.384
  C     -128.672    -106.777    -399.498
  N     -128.159    -106.233    -400.638
  C     -129.460    -108.028    -399.576
  C     -129.926    -108.499    -398.422
  O     -131.942    -114.083    -396.755
  O     -134.066    -113.149    -397.832
  H     -130.851    -106.548    -394.324
  H     -132.604    -114.408    -396.119
  H     -129.634    -108.508    -400.531
  H     -130.514    -109.407    -398.383
  H     -129.442    -108.000    -395.182
  H     -131.927    -107.043    -396.349
  H     -132.773    -109.228    -396.709
  H     -131.292    -110.107    -394.178
  H     -127.623    -105.376    -400.544
  H     -131.102    -112.260    -395.390
  H     -128.288    -106.633    -401.555
  H     -132.790    -111.831    -395.150
  P     -135.007    -109.044    -395.425
  C     -136.111    -110.886    -396.831
  O     -135.326    -110.595    -395.691
  O     -134.735    -108.501    -396.911
  O     -136.065    -108.254    -394.727
  H     -135.582    -108.377    -397.381
  H     -136.085    -111.963    -397.009
  H     -135.725    -110.372    -397.715
  H     -137.152    -110.590    -396.652
  H     -130.016    -113.625    -400.020
  H     -130.261    -114.403    -398.474
  H     -129.896    -112.696    -398.545

 3  4  5  6  7  8  9  10  11  12  13  21  23  27  28  29  30  32 0
 6-311+G(2d,p)
 ****
 34  35 0
 6-311+G(2d,p)
 ****
 1  2  14  15  16  17  18  19  20  22  24  25  26 0
 3-21G
 ****
 31  33  36  37  38  39  40  41  42  43  44  45  46 0
 3-21G
 ****


