%nproc=1
%NoSave
%Mem=1900MB
#P OB98/GEN NMR

erre ene a

0 1
  C      153.050      -0.249     -88.044
  O      154.112       0.581     -87.573
  P      155.128      -0.019     -86.487
  C      155.278      -0.229     -83.918
  O      154.460       0.113     -85.034
  C      154.599       0.188     -82.600
  O      154.673       1.632     -82.471
  C      153.112      -0.166     -82.501
  O      152.750      -1.437     -81.973
  C      152.624       0.877     -81.493
  O      152.891       0.420     -80.153
  C      153.485       2.100     -81.797
  N      149.895       5.751     -81.838
  C      150.356       4.947     -80.853
  N      151.313       4.001     -80.925
  C      151.824       3.931     -82.167
  C      151.455       4.686     -83.270
  C      150.437       5.636     -83.073
  N      149.961       6.448     -84.078
  N      152.196       4.326     -84.377
  C      152.982       3.354     -83.953
  N      152.805       3.089     -82.623
  O      156.541       0.446     -86.590
  O      155.031      -1.598     -86.762
  H      153.854       0.265     -80.099
  H      155.915      -1.996     -86.645
  H      149.890       5.080     -79.878
  H      153.692       2.820     -84.571
  H      153.809       2.620     -80.885
  H      151.547       1.047     -81.558
  H      152.607      -0.011     -83.465
  H      155.147      -0.258     -81.758
  H      156.246       0.271     -84.006
  H      149.197       7.070     -83.862
  H      150.313       6.334     -85.017
  H      155.472      -1.304     -83.968
  P      151.683      -2.375     -82.712
  C      149.198      -1.954     -83.429
  O      150.275      -1.616     -82.580
  O      151.664      -3.796     -82.261
  O      152.054      -2.175     -84.259
  H      151.862      -1.288     -84.605
  H      148.288      -1.486     -83.043
  H      149.054      -3.036     -83.465
  H      149.391      -1.568     -84.438
  H      152.465       0.292     -88.758
  H      152.431      -0.537     -87.221
  H      153.459      -1.123     -88.506

 3  4  5  6  7  8  9  10  11  12  22  25  29  30  31  32 0
 6-311+G(2d,p)
 ****
 33  36  37 0
 6-311+G(2d,p)
 ****
 1  2  13  14  15  16  17  18  19  20  21  23  24  26 0
 3-21G
 ****
 27  28  34  35  38  39  40  41  42  43  44  45  46  47  48 0
 3-21G
 ****


