%nproc=1
%NoSave
%Mem=1900MB
#P OB98/GEN NMR

erre ene a

0 1
  C     -687.537     362.047     131.685
  O     -688.636     362.906     131.438
  H     -686.620     362.642     131.663
  H     -687.477     361.280     130.911
  H     -687.627     361.578     132.669
  P     -690.120     362.317     131.567
  C     -690.144     362.006     129.003
  O     -690.376     361.409     130.272
  C     -690.876     361.230     127.912
  O     -690.669     359.810     128.085
  C     -692.393     361.420     127.930
  O     -692.756     362.677     127.385
  C     -692.853     360.215     127.131
  O     -692.727     360.466     125.718
  C     -691.847     359.134     127.592
  N     -692.414     358.241     128.616
  C     -692.234     356.873     128.405
  O     -691.684     356.413     127.419
  N     -692.760     356.060     129.369
  C     -693.522     356.455     130.444
  O     -694.037     355.676     131.227
  C     -693.686     357.904     130.597
  C     -693.127     358.724     129.692
  O     -691.190     363.317     131.855
  O     -690.002     361.235     132.743
  H     -691.779     360.621     125.554
  H     -690.400     361.592     133.555
  H     -692.658     355.069     129.233
  H     -694.267     358.265     131.438
  H     -693.249     359.797     129.785
  H     -691.529     358.525     126.742
  H     -693.899     359.968     127.323
  H     -692.768     361.324     128.962
  H     -690.467     361.519     126.943
  H     -689.063     361.990     128.792
  H     -690.481     363.049     129.031
  P     -693.321     363.828     128.341
  C     -695.730     363.208     127.661
  O     -694.821     363.428     128.739
  O     -693.158     365.226     127.833
  O     -692.521     363.623     129.712
  H     -692.010     364.435     129.907
  H     -696.692     362.949     128.052
  H     -695.368     362.410     127.047
  H     -695.811     364.100     127.075

 6  7  8  9  10  11  12  13  14  15  16  26  31  32  33  34  35 0
 6-311+G(2d,p)
 ****
 36  37 0
 6-311+G(2d,p)
 ****
 1  2  3  4  5  17  18  19  20  21  22  23  24  25 0
 3-21G
 ****
 27  28  29  30  38  39  40  41  42  43  44  45 0
 3-21G
 ****


