%nproc=1
%NoSave
%Mem=1900MB
#P OB98/GEN NMR

erre ene a

0 1
  C     -341.937     -25.477     322.364
  O     -341.007     -26.235     323.110
  P     -340.968     -26.086     324.705
  C     -338.528     -25.182     324.673
  O     -339.417     -26.168     325.141
  C     -337.082     -25.472     325.123
  O     -337.064     -25.485     326.572
  C     -336.543     -26.838     324.689
  O     -335.116     -26.823     324.785
  C     -337.121     -27.758     325.749
  O     -336.411     -28.987     325.846
  C     -337.070     -26.861     327.026
  N     -338.223     -27.102     327.902
  C     -338.497     -28.434     328.230
  O     -337.776     -29.370     327.890
  N     -339.676     -28.650     328.902
  C     -340.604     -27.700     329.209
  O     -341.764     -27.947     329.518
  C     -340.153     -26.299     329.050
  C     -339.023     -26.065     328.386
  O     -341.568     -27.487     325.201
  O     -341.713     -24.930     325.255
  H     -336.600     -29.487     325.007
  H     -342.513     -27.393     325.402
  H     -339.938     -29.626     329.021
  H     -340.799     -25.515     329.416
  H     -338.691     -25.045     328.207
  H     -336.163     -27.043     327.610
  H     -338.151     -27.990     325.505
  H     -336.847     -27.136     323.683
  H     -336.424     -24.671     324.784
  H     -338.845     -24.191     325.031
  H     -338.555     -25.128     323.574
  P     -334.254     -26.505     323.474
  C     -332.547     -28.337     323.992
  O     -332.758     -26.962     323.791
  O     -334.425     -25.133     322.901
  O     -334.765     -27.636     322.446
  H     -334.538     -27.388     321.539
  H     -331.527     -28.598     323.691
  H     -333.254     -28.955     323.414
  H     -332.659     -28.574     325.066
  H     -341.825     -25.699     321.323
  H     -341.760     -24.434     322.527
  H     -342.930     -25.723     322.676

 3  4  5  6  7  8  9  10  11  12  13  23  28  29  30  31  32 0
 6-311+G(2d,p)
 ****
 33  34 0
 6-311+G(2d,p)
 ****
 1  2  14  15  16  17  18  19  20  21  22  24  25  26  27 0
 3-21G
 ****
 35  36  37  38  39  40  41  42  43  44  45 0
 3-21G
 ****


