%nproc=1
%NoSave
%Mem=1900MB
#P OB98/GEN NMR

erre ene a

0 1
  C      -44.484     233.475      42.103
  O      -44.263     232.299      41.350
  H      -43.521     233.950      42.304
  H      -44.962     233.228      43.055
  H      -45.113     234.171      41.541
  P      -45.564     231.457      40.930
  C      -47.323     230.036      42.213
  O      -46.084     230.734      42.264
  C      -47.546     229.291      43.526
  O      -46.485     228.330      43.729
  C      -47.521     230.189      44.756
  O      -48.734     230.897      44.935
  C      -47.243     229.173      45.856
  O      -48.446     228.523      46.281
  C      -46.315     228.173      45.158
  N      -42.743     227.124      48.651
  C      -44.020     226.708      48.515
  N      -44.906     227.025      47.545
  C      -44.340     227.839      46.637
  C      -43.050     228.342      46.640
  C      -42.226     227.949      47.708
  N      -40.933     228.390      47.862
  N      -42.849     229.177      45.561
  C      -43.998     229.175      44.910
  N      -44.924     228.377      45.519
  O      -44.955     230.261      40.059
  O      -46.597     232.225      40.175
  H      -49.051     229.231      46.574
  H      -45.062     230.461      39.110
  H      -44.384     226.043      49.291
  H      -44.204     229.733      44.006
  H      -46.564     227.135      45.404
  H      -46.798     229.655      46.725
  H      -46.675     230.885      44.698
  H      -48.497     228.745      43.462
  H      -47.300     229.316      41.389
  H      -48.128     230.756      42.036
  H      -40.424     228.123      48.689
  H      -40.579     229.095      47.230
  P      -48.642     232.459      45.283
  C      -48.011     233.864      47.386
  O      -48.112     232.581      46.790
  O      -50.171     232.920      45.378
  O      -47.879     233.271      44.293
  H      -50.265     233.831      45.039
  H      -47.643     233.765      48.386
  H      -48.976     234.325      47.405
  H      -47.337     234.470      46.817

 6  7  8  9  10  11  12  13  14  15  25  28  32  33  34  35 0
 6-311+G(2d,p)
 ****
 36  37  40 0
 6-311+G(2d,p)
 ****
 1  2  3  4  5  16  17  18  19  20  21  22  23  24 0
 3-21G
 ****
 26  27  29  30  31  38  39 41  42  43  44  45  46  47  48 0
 3-21G
 ****


