%nproc=1
%NoSave
%Mem=1900MB
#P OB98/GEN NMR

erre ene a

0 1
  C      -79.791    -736.573    -105.870
  O      -79.839    -737.043    -104.524
  P      -79.169    -736.143    -103.380
  C      -81.389    -735.663    -102.011
  O      -80.078    -736.178    -102.064
  C      -82.218    -736.478    -101.011
  O      -82.563    -737.760    -101.579
  C      -81.482    -736.755     -99.705
  O      -81.653    -735.689     -98.766
  C      -82.114    -738.058     -99.245
  O      -83.420    -737.817     -98.679
  C      -82.243    -738.805    -100.599
  N      -81.090    -739.580    -101.087
  C      -80.879    -740.877    -100.625
  O      -81.607    -741.451     -99.809
  N      -79.786    -741.536    -101.144
  C      -79.004    -741.107    -102.171
  O      -78.075    -741.758    -102.631
  C      -79.367    -739.802    -102.731
  C      -80.355    -739.102    -102.168
  O      -79.340    -734.655    -103.917
  O      -77.734    -736.483    -103.094
  H      -83.297    -737.186     -97.953
  H      -78.466    -734.255    -104.097
  H      -79.582    -742.445    -100.762
  H      -78.797    -739.441    -103.578
  H      -80.627    -738.130    -102.577
  H      -83.110    -739.496    -100.572
  H      -81.526    -738.540     -98.477
  H      -80.424    -736.933     -99.885
  H      -83.162    -735.946    -100.809
  H      -81.861    -735.683    -102.995
  H      -81.352    -734.610    -101.705
  P      -80.413    -735.192     -97.887
  C      -80.222    -732.787     -98.756
  O      -80.633    -733.625     -97.689
  O      -79.066    -735.610     -98.368
  O      -80.727    -735.775     -96.428
  H      -80.264    -736.630     -96.272
  H      -80.568    -731.774     -98.575
  H      -80.653    -733.149     -99.707
  H      -79.130    -732.793     -98.830
  H      -80.276    -737.278    -106.512
  H      -78.771    -736.459    -106.172
  H      -80.290    -735.629    -105.936

 3  4  5  6  7  8  9  10  11  12  13  23  28  29  30  31  32 0
 6-311+G(2d,p)
 ****
 33  34 0
 6-311+G(2d,p)
 ****
 1  2  14  15  16  17  18  19  20  21  22  24  25  26  27 0
 3-21G
 ****
 35  36  37  38  39  40  41  42  43  44  45 0
 3-21G
 ****


