%nproc=1
%NoSave
%Mem=1900MB
#P OB98/GEN NMR

erre ene a

0 1
  C      -94.514    -162.124     374.566
  O      -94.256    -160.824     374.060
  P      -95.399    -159.708     374.045
  C      -96.209    -159.953     371.556
  O      -96.475    -160.102     372.938
  C      -97.539    -159.810     370.805
  O      -98.272    -161.054     370.851
  C      -98.414    -158.721     371.420
  O      -98.230    -157.489     370.742
  C      -99.813    -159.293     371.264
  O     -100.307    -159.058     369.933
  C      -99.558    -160.804     371.484
  N      -99.485    -161.303     372.874
  C     -100.596    -161.184     373.707
  O     -101.670    -160.709     373.349
  N     -100.417    -161.614     374.998
  C      -99.283    -162.177     375.505
  O      -99.053    -162.330     376.698
  C      -98.253    -162.518     374.517
  C      -98.388    -162.052     373.274
  O      -94.660    -158.444     373.405
  O      -96.005    -159.389     375.370
  H      -99.680    -159.473     369.313
  H      -94.365    -157.824     374.102
  H     -101.174    -161.403     375.639
  H      -97.395    -163.090     374.846
  H      -97.620    -162.264     372.531
  H     -100.308    -161.407     370.963
  H     -100.516    -158.807     371.939
  H      -98.198    -158.618     372.495
  H      -97.328    -159.581     369.752
  H      -95.652    -160.822     371.184
  H      -95.581    -159.071     371.387
  P      -97.913    -156.162     371.581
  C     -100.313    -155.724     372.359
  O      -99.018    -156.128     372.742
  O      -97.776    -154.913     370.784
  O      -96.550    -156.533     372.343
  H      -95.785    -156.162     371.856
  H     -101.004    -155.913     373.182
  H     -100.648    -156.291     371.479
  H     -100.322    -154.654     372.129
  H      -93.628    -162.719     374.489
  H      -95.299    -162.578     373.999
  H      -94.809    -162.055     375.592

 3  4  5  6  7  8  9  10  11  12  13  23  28  29  30  31  32 0
 6-311+G(2d,p)
 ****
 33  34 0
 6-311+G(2d,p)
 ****
 1  2  14  15  16  17  18  19  20  21  22  24  25  26  27 0
 3-21G
 ****
 35  36  37  38  39  40  41  42  43  44  45 0
 3-21G
 ****


