%nproc=1
%NoSave
%Mem=1900MB
#P OB98/GEN NMR

erre ene a

0 1
  C     -637.970    1006.657    -609.767
  O     -636.557    1006.733    -609.828
  P     -635.744    1005.347    -609.947
  C     -633.984    1005.592    -611.844
  O     -634.280    1005.750    -610.469
  C     -632.468    1005.676    -612.080
  O     -632.079    1007.036    -612.356
  C     -631.614    1005.232    -610.913
  O     -631.468    1003.831    -610.847
  C     -630.286    1005.879    -611.255
  O     -629.602    1005.100    -612.256
  C     -630.731    1007.238    -611.870
  N     -627.723    1010.047    -608.846
  C     -627.461    1009.006    -609.628
  N     -628.330    1008.293    -610.391
  C     -629.572    1008.760    -610.253
  C     -630.008    1009.815    -609.476
  C     -629.028    1010.490    -608.750
  N     -629.284    1011.593    -607.944
  N     -631.364    1009.995    -609.583
  C     -631.750    1009.080    -610.455
  N     -630.721    1008.316    -610.901
  O     -636.410    1004.663    -611.235
  O     -635.810    1004.479    -608.759
  H     -629.517    1004.198    -611.900
  H     -636.272    1003.693    -611.211
  H     -626.437    1008.669    -609.658
  H     -632.769    1008.938    -610.800
  H     -630.108    1007.540    -612.713
  H     -629.607    1005.980    -610.403
  H     -632.001    1005.648    -609.966
  H     -632.237    1005.079    -612.982
  H     -634.474    1006.383    -612.427
  H     -628.512    1012.128    -607.614
  H     -630.204    1012.036    -608.050
  H     -634.356    1004.615    -612.179
  P     -631.920    1003.119    -609.490
  C     -632.300    1000.714    -610.419
  O     -631.490    1001.555    -609.658
  O     -633.503    1003.075    -609.609
  O     -631.456    1003.812    -608.263
  H     -633.919    1003.046    -608.710
  H     -631.719     999.818    -610.691
  H     -632.613    1001.191    -611.356
  H     -633.194    1000.401    -609.854
  H     -638.377    1007.643    -609.690
  H     -638.260    1006.084    -608.911
  H     -638.340    1006.186    -610.654

 3  4  5  6  7  8  9  10  11  12  22  25  29  30  31  32 0
 6-311+G(2d,p)
 ****
 33  36  37 0
 6-311+G(2d,p)
 ****
 1  2  13  14  15  16  17  18  19  20  21  23  24  26 0
 3-21G
 ****
 27  28  34  35  38  39  40  41  42  43  44  45  46  47  48 0
 3-21G
 ****


