%nproc=1
%NoSave
%Mem=1900MB
#P OB98/GEN NMR

erre ene a

0 1
  C      -21.526     501.054     731.989
  O      -20.253     500.432     732.054
  P      -19.143     501.142     732.978
  C      -17.730     498.975     733.326
  O      -17.801     500.292     732.805
  C      -16.503     498.259     732.745
  O      -15.357     499.119     732.793
  C      -16.115     496.985     733.489
  O      -16.917     495.898     733.074
  C      -14.646     496.852     733.117
  O      -14.499     496.253     731.813
  C      -14.180     498.317     733.102
  N      -10.005     498.214     735.957
  C      -10.320     497.503     734.803
  N       -9.356     496.685     734.328
  N      -11.473     497.601     734.182
  C      -12.335     498.443     734.781
  C      -12.148     499.186     735.932
  C      -10.857     499.117     736.576
  O      -10.496     499.793     737.534
  N      -13.262     499.907     736.248
  C      -14.123     499.630     735.269
  N      -13.590     498.761     734.350
  O      -19.630     500.799     734.456
  O      -18.975     502.615     732.755
  H      -14.842     495.345     731.829
  H      -20.131     501.549     734.846
  H       -9.103     498.116     736.383
  H      -15.107     500.041     735.181
  H      -13.439     498.504     732.318
  H      -14.098     496.207     733.810
  H       -8.454     496.551     734.755
  H      -16.205     497.128     734.577
  H       -9.565     496.156     733.492
  H      -16.715     498.023     731.686
  H      -18.633     498.429     733.038
  H      -17.668     499.019     734.413
  P      -17.143     494.691     734.113
  C      -19.260     493.882     732.865
  O      -17.985     493.556     733.363
  O      -18.171     495.309     735.176
  O      -15.894     494.225     734.790
  H      -17.960     494.965     736.068
  H      -19.468     493.263     731.983
  H      -19.339     494.941     732.586
  H      -20.014     493.665     733.631
  H      -22.167     500.487     731.347
  H      -21.419     502.046     731.602
  H      -21.952     501.098     732.970

 3  4  5  6  7  8  9  10  11  12  23  26  30  31 0
 6-311+G(2d,p)
 ****
 33  35  36  37  38 0
 6-311+G(2d,p)
 ****
 1  2  13  14  15  16  17  18  19  20  21  22  24  25 0
 3-21G
 ****
 27  28  29  32  34  39  40  41  42  43  44  45  46  47  48  49 0
 3-21G
 ****


