%nproc=1
%NoSave
%Mem=1900MB
#P OB98/GEN NMR

erre ene a

0 1
  C      156.526     293.427     -13.752
  O      155.295     294.089     -13.960
  H      156.602     293.096     -12.712
  H      156.566     292.550     -14.403
  H      157.361     294.088     -13.998
  P      155.050     295.431     -13.114
  C      156.454     296.882     -14.741
  O      156.301     296.388     -13.420
  C      156.207     298.388     -14.775
  O      157.135     299.065     -13.899
  C      156.388     299.036     -16.143
  O      155.250     298.846     -16.969
  C      156.551     300.496     -15.744
  O      155.261     301.072     -15.465
  C      157.370     300.387     -14.449
  N      161.654     302.487     -12.588
  C      160.388     302.430     -12.106
  N      159.307     301.836     -12.649
  C      159.630     301.235     -13.807
  C      160.874     301.184     -14.414
  C      161.921     301.855     -13.757
  N      163.194     301.960     -14.296
  N      160.812     300.480     -15.605
  C      159.547     300.136     -15.720
  N      158.796     300.560     -14.659
  O      155.300     294.946     -11.603
  O      153.702     296.050     -13.280
  H      154.739     301.016     -16.287
  H      154.441     294.747     -11.185
  H      160.229     302.939     -11.163
  H      159.131     299.584     -16.552
  H      157.051     301.113     -13.693
  H      157.016     301.106     -16.528
  H      157.308     298.693     -16.632
  H      155.195     298.571     -14.389
  H      155.739     296.387     -15.404
  H      163.689     302.803     -14.009
  H      163.259     301.701     -15.274
  H      157.469     296.656     -15.083
  P      155.472     298.845     -18.559
  C      156.128     296.364     -18.884
  O      156.574     297.713     -18.863
  O      156.260     300.221     -18.807
  O      154.228     298.777     -19.376
  H      155.772     300.765     -19.456
  H      156.955     295.718     -19.096
  H      155.381     296.247     -19.641
  H      155.713     296.111     -17.931

 6  7  8  9  10  11  12  13  14  15  25  28  32  33  34  35 0
 6-311+G(2d,p)
 ****
 36  39  40 0
 6-311+G(2d,p)
 ****
 1  2  3  4  5  16  17  18  19  20  21  22  23  24 0
 3-21G
 ****
 26  27  29  30  31  37  38  41  42  43  44  45  46  47  48 0
 3-21G
 ****


