%nproc=1
%NoSave
%Mem=1900MB
#P OB98/GEN NMR

erre ene a

0 1
  C     -109.731     -72.059     111.963
  O     -109.888     -72.670     110.694
  P     -108.741     -73.601     110.083
  C     -108.589     -72.051     107.969
  O     -107.933     -72.757     108.997
  C     -107.540     -71.347     107.100
  O     -106.988     -70.216     107.804
  C     -106.389     -72.284     106.739
  O     -106.613     -72.888     105.476
  C     -105.187     -71.359     106.764
  O     -105.092     -70.626     105.529
  C     -105.553     -70.405     107.928
  N     -105.267     -70.848     109.305
  C     -103.977     -70.728     109.812
  O     -103.041     -70.240     109.187
  N     -103.787     -71.222     111.080
  C     -104.753     -71.764     111.876
  O     -104.531     -72.412     112.893
  C     -106.130     -71.611     111.395
  C     -106.318     -71.191     110.144
  O     -109.562     -74.650     109.198
  O     -107.863     -74.278     111.083
  H     -104.951     -71.276     104.819
  H     -109.683     -75.489     109.682
  H     -102.824     -71.266     111.398
  H     -106.939     -71.899     112.052
  H     -107.328     -71.106     109.750
  H     -105.074     -69.428     107.797
  H     -104.260     -71.921     106.858
  H     -106.262     -73.046     107.521
  H     -108.025     -70.972     106.190
  H     -109.282     -71.319     108.399
  H     -109.184     -72.740     107.361
  P     -105.636     -74.049     104.969
  C     -105.441     -72.836     102.719
  O     -104.739     -73.374     103.823
  O     -106.299     -75.332     104.593
  O     -104.626     -74.240     106.198
  H     -104.913     -74.997     106.749
  H     -104.744     -72.258     102.110
  H     -106.246     -72.179     103.059
  H     -105.854     -73.646     102.113
  H     -110.602     -71.481     112.191
  H     -108.873     -71.420     111.947
  H     -109.599     -72.815     112.709

 3  4  5  6  7  8  9  10  11  12  13  23  28  29  30  31  32 0
 6-311+G(2d,p)
 ****
 33  34 0
 6-311+G(2d,p)
 ****
 1  2  14  15  16  17  18  19  20  21  22  24  25  26  27 0
 3-21G
 ****
 35  36  37  38  39  40  41  42  43  44  45 0
 3-21G
 ****


