%nproc=1
%NoSave
%Mem=1900MB
#P OB98/GEN NMR

erre ene a

0 1
  C     -451.271      98.506     181.676
  O     -452.628      98.453     181.256
  P     -453.603      99.586     181.817
  C     -453.303     101.537     180.100
  O     -454.099     100.451     180.558
  C     -453.477     101.706     178.589
  O     -452.979     100.551     177.892
  C     -454.931     101.871     178.148
  O     -455.399     103.189     178.387
  C     -454.846     101.490     176.676
  O     -454.431     102.626     175.889
  C     -453.759     100.398     176.680
  N     -454.311      99.066     176.557
  C     -454.474      98.575     175.259
  O     -454.187      99.256     174.259
  N     -455.020      97.340     175.133
  C     -455.447      96.544     176.163
  O     -455.955      95.444     175.977
  C     -455.273      97.092     177.502
  C     -454.737      98.299     177.644
  O     -452.636     100.594     182.599
  O     -454.713      99.085     182.695
  H     -453.526     102.840     176.175
  H     -453.091     100.954     183.387
  H     -455.116      96.964     174.202
  H     -455.613      96.494     178.343
  H     -454.613      98.754     178.634
  H     -453.051     100.568     175.852
  H     -455.810     101.156     176.278
  H     -455.552     101.119     178.677
  H     -452.890     102.583     178.288
  H     -452.267     101.353     180.340
  H     -453.624     102.446     180.629
  P     -456.710     103.327     179.321
  C     -455.935     102.985     181.775
  O     -456.152     103.883     180.723
  O     -457.069     101.793     179.579
  O     -457.791     104.129     178.674
  H     -456.280     101.231     179.590
  H     -455.585     102.009     181.439
  H     -456.877     102.850     182.351
  H     -455.181     103.407     182.466
  H     -450.729      97.697     181.233
  H     -451.224      98.425     182.742
  H     -450.839      99.436     181.370

 3  4  5  6  7  8  9  10  11  12  13  23  28  29  30  31  32 0
 6-311+G(2d,p)
 ****
 33  34 0
 6-311+G(2d,p)
 ****
 1  2  14  15  16  17  18  19  20  21  22  24  25  26 0
 3-21G
 ****
 27  35  36  37  38  39  40  41  42  43  44  45 0
 3-21G
 ****


