%nproc=1
%NoSave
%Mem=1900MB
#P OB98/GEN NMR

erre ene a

0 1
  C     -221.333    -510.691    -418.532
  O     -222.234    -509.936    -419.355
  P     -221.707    -509.418    -420.779
  C     -222.308    -506.931    -420.299
  O     -222.491    -508.069    -421.136
  C     -223.631    -506.176    -420.121
  O     -224.549    -506.922    -419.273
  C     -223.474    -504.806    -419.477
  O     -223.103    -503.820    -420.434
  C     -224.889    -504.548    -418.992
  O     -225.718    -504.097    -420.085
  C     -225.332    -505.948    -418.526
  N     -227.367    -505.291    -413.938
  C     -227.860    -504.950    -415.184
  N     -229.071    -504.361    -415.209
  N     -227.212    -505.183    -416.301
  C     -226.024    -505.797    -416.121
  C     -225.432    -506.169    -414.937
  C     -226.139    -505.909    -413.708
  O     -225.746    -506.163    -412.571
  N     -224.207    -506.756    -415.158
  C     -224.074    -506.757    -416.476
  N     -225.144    -506.163    -417.101
  O     -222.347    -510.477    -421.801
  O     -220.216    -509.363    -420.897
  H     -225.189    -503.467    -420.597
  H     -221.779    -510.553    -422.594
  H     -227.895    -505.088    -413.108
  H     -223.225    -507.169    -417.004
  H     -226.398    -506.144    -418.741
  H     -224.931    -503.774    -418.218
  H     -229.642    -504.209    -414.397
  H     -222.783    -504.851    -418.628
  H     -229.458    -504.144    -416.122
  H     -224.089    -506.066    -421.119
  H     -221.552    -506.263    -420.715
  H     -221.898    -507.265    -419.334
  P     -221.725    -503.034    -420.206
  C     -223.014    -500.858    -420.783
  O     -221.864    -501.651    -420.983
  O     -220.682    -503.885    -421.072
  O     -221.298    -502.935    -418.769
  H     -219.796    -503.847    -420.664
  H     -222.862    -499.885    -421.260
  H     -223.189    -500.700    -419.709
  H     -223.887    -501.340    -421.233
  H     -221.825    -510.964    -417.622
  H     -220.472    -510.097    -418.308
  H     -221.031    -511.576    -419.053

 3  4  5  6  7  8  9  10  11  12  23  26  30  31 0
 6-311+G(2d,p)
 ****
 33  35  36  37  38 0
 6-311+G(2d,p)
 ****
 1  2  13  14  15  16  17  18  19  20  21  22  24  25 0
 3-21G
 ****
 27  28  29  32  34  39  40  41  42  43  44  45  46  47  48  49 0
 3-21G
 ****


