%nproc=1
%NoSave
%Mem=1900MB
#P OB98/GEN NMR

erre ene a

0 1
  C     -395.942     -37.206      46.032
  O     -394.914     -38.159      46.248
  P     -393.416     -37.687      46.568
  C     -393.869     -37.786      49.098
  O     -393.459     -36.972      48.005
  C     -393.771     -37.013      50.411
  O     -394.536     -37.711      51.422
  C     -392.345     -36.875      50.930
  O     -392.201     -35.597      51.555
  C     -392.230     -37.947      52.002
  O     -391.232     -37.602      52.979
  C     -393.666     -37.995      52.534
  N     -394.011     -40.850      56.785
  C     -393.655     -39.560      56.597
  N     -393.560     -38.875      55.437
  C     -393.937     -39.643      54.403
  C     -394.329     -40.972      54.441
  C     -394.357     -41.586      55.705
  N     -394.734     -42.899      55.896
  N     -394.610     -41.435      53.169
  C     -394.411     -40.399      52.386
  N     -394.014     -39.289      53.084
  O     -392.766     -36.885      45.496
  O     -392.621     -39.042      46.863
  H     -390.361     -37.682      52.537
  H     -391.719     -38.993      46.495
  H     -393.409     -39.006      57.497
  H     -394.529     -40.401      51.313
  H     -393.839     -37.233      53.302
  H     -391.939     -38.896      51.544
  H     -391.592     -36.995      50.144
  H     -394.232     -36.028      50.272
  H     -393.207     -38.658      49.144
  H     -394.840     -43.215      56.846
  H     -395.154     -43.390      55.120
  H     -394.891     -38.135      48.927
  P     -390.700     -35.185      51.974
  C     -390.302     -34.227      49.586
  O     -389.894     -35.128      50.592
  O     -390.155     -36.069      53.048
  O     -390.910     -33.657      52.406
  H     -391.694     -33.261      51.965
  H     -389.657     -34.361      48.715
  H     -390.196     -33.196      49.939
  H     -391.338     -34.416      49.298
  H     -396.863     -37.713      45.835
  H     -395.687     -36.590      45.195
  H     -396.051     -36.595      46.904

 3  4  5  6  7  8  9  10  11  12  22  25  29  30  31  32 0
 6-311+G(2d,p)
 ****
 33  36  37 0
 6-311+G(2d,p)
 ****
 1  2  13  14  15  16  17  18  19  20  21  23  24  26 0
 3-21G
 ****
 27  28  34  35  38  39  40  41  42  43  44  45  46  47  48 0
 3-21G
 ****


