%nproc=1
%NoSave
%Mem=1900MB
#P OB98/GEN NMR

erre ene a

0 1
  C      600.632    -185.695     435.068
  O      600.236    -185.578     436.419
  H      600.987    -186.713     434.894
  H      601.444    -184.996     434.847
  H      599.780    -185.501     434.411
  P      599.731    -184.133     436.898
  C      597.390    -185.130     437.315
  O      598.148    -184.151     436.616
  C      595.941    -184.670     437.470
  O      595.939    -183.300     437.958
  C      595.147    -184.690     436.158
  O      593.795    -185.062     436.440
  C      595.177    -183.240     435.710
  O      594.108    -182.918     434.828
  C      595.148    -182.513     437.052
  N      594.489    -177.698     438.571
  C      593.922    -178.857     438.967
  N      594.176    -180.107     438.522
  C      595.165    -180.092     437.610
  C      595.839    -178.992     437.110
  C      595.455    -177.744     437.624
  N      596.002    -176.552     437.203
  N      596.754    -179.385     436.152
  C      596.645    -180.701     436.088
  N      595.680    -181.167     436.936
  O      600.464    -182.970     436.322
  O      599.798    -184.270     438.491
  H      594.125    -183.547     434.078
  H      599.404    -185.106     438.796
  H      593.155    -178.775     439.735
  H      597.220    -181.348     435.436
  H      594.133    -182.430     437.462
  H      596.120    -183.039     435.180
  H      595.569    -185.361     435.412
  H      595.456    -185.281     438.240
  H      597.826    -185.309     438.303
  H      595.670    -175.700     437.627
  H      596.728    -176.562     436.502
  H      597.435    -186.063     436.742
  P      593.166    -186.327     435.689
  C      593.281    -188.122     437.532
  O      593.813    -187.667     436.297
  O      593.153    -186.257     434.200
  O      591.673    -186.377     436.271
  H      591.053    -186.579     435.541
  H      593.789    -189.015     437.832
  H      592.237    -188.327     437.417
  H      593.416    -187.367     438.278

 6  7  8  9  10  11  12  13  14  15  25  28  32  33  34  35 0
 6-311+G(2d,p)
 ****
 36  39  40 0
 6-311+G(2d,p)
 ****
 1  2  3  4  5  16  17  18  19  20  21  22  23  24 0
 3-21G
 ****
 26  27  29  30  31  37  38  41  42  43  44  45  46  47 0
 3-21G
 ****
 48 0
 3-21G
 ****


