%nproc=1
%NoSave
%Mem=1900MB
#P OB98/GEN NMR

erre ene a

0 1
  C      263.503    -550.045    -477.443
  O      264.042    -551.007    -478.321
  P      264.666    -550.564    -479.736
  C      267.066    -551.296    -479.123
  O      265.932    -551.526    -479.966
  C      267.822    -552.594    -478.868
  O      266.981    -553.545    -478.181
  C      268.291    -553.298    -480.127
  O      269.434    -552.658    -480.666
  C      268.538    -554.707    -479.608
  O      269.826    -554.811    -478.987
  C      267.410    -554.864    -478.563
  N      266.301    -555.666    -479.063
  C      266.495    -557.053    -479.071
  O      267.572    -557.530    -478.699
  N      265.489    -557.864    -479.542
  C      264.395    -557.328    -479.996
  N      263.440    -558.180    -480.463
  C      264.158    -555.871    -480.034
  C      265.150    -555.107    -479.563
  O      264.924    -549.105    -479.883
  O      263.592    -551.136    -480.790
  H      270.464    -554.404    -479.610
  H      262.770    -550.584    -480.795
  H      263.236    -555.477    -480.436
  H      265.057    -554.029    -479.558
  H      267.797    -555.347    -477.650
  H      268.506    -555.453    -480.408
  H      267.479    -553.323    -480.866
  H      268.681    -552.360    -478.224
  H      263.655    -559.168    -480.438
  H      266.705    -550.890    -478.169
  H      262.564    -557.870    -480.863
  H      267.717    -550.545    -479.591
  P      269.801    -552.838    -482.215
  C      268.475    -550.803    -483.053
  O      269.763    -551.382    -482.896
  O      269.041    -553.907    -482.933
  O      271.373    -553.171    -482.190
  H      271.543    -553.909    -482.810
  H      268.598    -549.723    -483.202
  H      267.862    -550.970    -482.166
  H      267.989    -551.228    -483.929
  H      263.140    -550.531    -476.561
  H      262.697    -549.533    -477.926
  H      264.263    -549.341    -477.175

 3  4  5  6  7  8  9  10  11  12  13  23  27  28  29  30  32 0
 6-311+G(2d,p)
 ****
 34  35 0
 6-311+G(2d,p)
 ****
 1  2  14  15  16  17  18  19  20  21  22  24  25  26 0
 3-21G
 ****
 31  33  36  37  38  39  40  41  42  43  44  45  46 0
 3-21G
 ****


