%nproc=1
%NoSave
%Mem=1900MB
#P OB98/GEN NMR

erre ene a

0 1
  C      279.423     780.258     419.070
  O      278.398     781.024     418.440
  P      278.172     782.590     418.666
  C      278.849     784.792     417.415
  O      278.920     783.378     417.496
  C      279.429     785.361     416.102
  O      280.798     784.881     415.924
  C      278.631     784.845     414.897
  O      277.443     785.503     414.503
  C      279.662     784.727     413.787
  O      279.721     785.883     412.956
  C      280.984     784.550     414.535
  N      283.084     781.009     411.493
  C      282.599     782.256     411.177
  N      282.638     782.609     409.858
  N      282.117     783.101     412.041
  C      282.060     782.595     413.304
  C      282.492     781.363     413.742
  C      283.070     780.474     412.773
  O      283.533     779.342     413.000
  N      282.253     781.202     415.075
  C      281.656     782.308     415.452
  N      281.525     783.198     414.411
  O      278.405     783.077     420.055
  O      276.609     782.797     418.332
  H      278.818     786.107     412.680
  H      276.291     783.526     418.910
  H      283.478     780.411     410.770
  H      281.319     782.544     416.456
  H      281.747     785.236     414.159
  H      279.414     783.886     413.120
  H      282.884     781.962     409.127
  H      278.332     783.817     415.131
  H      282.089     783.425     409.607
  H      279.489     786.442     416.143
  H      279.390     785.186     418.274
  H      277.807     785.120     417.509
  P      275.992     785.293     415.165
  C      274.987     786.649     417.091
  O      276.046     785.800     416.678
  O      275.866     783.712     415.313
  O      274.845     785.831     414.354
  H      274.930     783.448     415.455
  H      275.305     787.171     418.021
  H      274.088     786.061     417.283
  H      274.769     787.406     416.324
  H      279.355     779.239     418.749
  H      279.302     780.306     420.132
  H      280.380     780.654     418.801

 3  4  5  6  7  8  9  10  11  12  23  26  30  31 0
 6-311+G(2d,p)
 ****
 33  35  36  37  38 0
 6-311+G(2d,p)
 ****
 1  2  13  14  15  16  17  18  19  20  21  22  24  25 0
 3-21G
 ****
 27  28  29  32  34  39  40  41  42  43  44  45  46  47  48  49 0
 3-21G
 ****


