%nproc=1
%NoSave
%Mem=1900MB
#P OB98/GEN NMR

erre ene a

0 1
  C       85.784    -182.123     -42.244
  O       85.868    -183.050     -41.158
  P       87.335    -183.488     -40.672
  C       87.394    -185.847     -41.797
  O       87.877    -184.515     -41.781
  C       88.050    -186.651     -42.924
  O       87.535    -188.017     -42.918
  C       87.828    -186.075     -44.327
  O       89.040    -186.293     -45.063
  C       86.713    -186.943     -44.880
  O       86.681    -186.927     -46.300
  C       87.071    -188.295     -44.256
  N       85.950    -189.230     -44.251
  C       85.969    -190.241     -45.204
  O       86.832    -190.320     -46.076
  N       84.932    -191.133     -45.152
  C       83.861    -191.066     -44.308
  O       82.958    -191.893     -44.305
  C       83.839    -189.910     -43.398
  C       84.868    -189.059     -43.414
  O       86.989    -184.406     -39.413
  O       88.224    -182.324     -40.386
  H       86.186    -184.941     -39.531
  H       85.949    -187.498     -46.609
  H       84.943    -191.892     -45.816
  H       82.977    -189.791     -42.754
  H       84.872    -188.188     -42.773
  H       87.905    -188.758     -44.799
  H       85.746    -186.589     -44.507
  H       87.588    -185.008     -44.315
  H       89.126    -186.712     -42.714
  H       86.310    -185.847     -41.950
  H       87.578    -186.309     -40.821
  P       90.254    -185.256     -44.853
  C       89.490    -183.419     -46.554
  O       89.695    -183.799     -45.212
  O       91.155    -185.619     -46.130
  O       90.993    -185.399     -43.564
  H       90.642    -185.681     -46.953
  H       88.894    -182.503     -46.573
  H       88.953    -184.193     -47.107
  H       90.452    -183.221     -47.036
  H       84.756    -181.921     -42.462
  H       86.256    -182.542     -43.108
  H       86.277    -181.212     -41.975

 3  4  5  6  7  8  9  10  11  12  13  24  28  29  30  31  32 0
 6-311+G(2d,p)
 ****
 33  34 0
 6-311+G(2d,p)
 ****
 1  2  14  15  16  17  18  19  20  21  22  23  25  26  27 0
 3-21G
 ****
 35  36  37  38  39  40  41  42  43  44  45 0
 3-21G
 ****


