%nproc=1
%NoSave
%Mem=1900MB
#P OB98/GEN NMR

erre ene a

0 1
  C      277.258     591.883     263.338
  O      278.621     591.549     263.167
  H      277.192     592.773     263.964
  H      276.733     591.062     263.838
  H      276.784     592.092     262.373
  P      279.006     590.368     262.147
  C      280.951     589.342     263.496
  O      280.572     590.082     262.335
  C      282.394     588.863     263.357
  O      282.470     587.775     262.417
  C      283.345     589.931     262.809
  O      283.668     590.899     263.788
  C      284.504     589.067     262.349
  O      285.373     588.739     263.441
  C      283.788     587.812     261.813
  N      283.699     587.808     260.357
  C      284.793     587.285     259.677
  O      285.807     586.846     260.238
  N      284.741     587.357     258.305
  C      283.778     588.006     257.580
  O      283.891     588.252     256.384
  C      282.611     588.475     258.350
  C      282.636     588.367     259.669
  O      278.563     590.570     260.732
  O      278.324     589.072     262.796
  H      277.502     588.865     262.315
  H      284.783     588.516     264.196
  H      285.556     587.023     257.809
  H      281.793     588.930     257.799
  H      281.793     588.728     260.270
  H      284.307     586.900     262.147
  H      285.115     589.585     261.591
  H      282.889     590.418     261.931
  H      282.738     588.502     264.335
  H      280.289     588.470     263.587
  H      280.829     589.980     264.379
  P      283.688     592.452     263.412
  C      285.753     593.677     264.365
  O      284.416     593.245     264.611
  O      282.383     593.032     262.981
  O      284.773     592.548     262.225
  H      284.388     593.047     261.489
  H      286.127     594.188     265.228
  H      285.765     594.340     263.525
  H      286.370     592.828     264.158

 6  7  8  9  10  11  12  13  14  15  16  27  31  32  33  34  35 0
 6-311+G(2d,p)
 ****
 36  37 0
 6-311+G(2d,p)
 ****
 1  2  3  4  5  17  18  19  20  21  22  23  24  25 0
 3-21G
 ****
 26  28  29  30  38  39  40  41  42  43  44  45 0
 3-21G
 ****


