%nproc=1
%NoSave
%Mem=1900MB
#P OB98/GEN NMR

erre ene a

0 1
  C      376.559    -310.328      95.777
  O      376.145    -311.058      96.921
  P      376.115    -310.448      98.387
  C      377.826    -309.300      99.988
  O      377.630    -310.103      98.831
  C      378.724    -309.979     101.041
  O      379.941    -310.451     100.413
  C      379.156    -308.949     102.091
  O      378.303    -308.651     103.189
  C      380.582    -309.368     102.494
  O      380.615    -310.135     103.691
  C      381.040    -310.205     101.293
  N      385.873    -308.665     101.342
  C      385.212    -309.490     102.236
  N      385.880    -309.796     103.364
  N      384.016    -309.964     102.033
  C      383.439    -309.500     100.902
  C      383.994    -308.684      99.922
  C      385.337    -308.225     100.150
  O      385.922    -307.401      99.431
  N      383.089    -308.371      98.950
  C      381.972    -308.945      99.342
  N      382.125    -309.606     100.537
  O      375.215    -311.105      99.379
  O      375.526    -308.964      98.109
  H      381.491    -310.558     103.760
  H      374.964    -308.710      98.880
  H      386.769    -308.279     101.598
  H      381.022    -308.881      98.816
  H      381.395    -311.185     101.637
  H      381.199    -308.478     102.673
  H      386.740    -309.332     103.629
  H      379.279    -307.990     101.574
  H      385.376    -310.258     104.117
  H      378.236    -310.866     101.453
  H      376.833    -309.083     100.404
  H      378.269    -308.348      99.697
  P      378.358    -307.343     104.104
  C      380.228    -305.915     105.145
  O      379.830    -307.213     104.713
  O      377.469    -307.715     105.387
  O      377.839    -306.092     103.454
  H      377.158    -306.903     105.818
  H      381.304    -305.886     105.239
  H      379.760    -305.698     106.109
  H      379.911    -305.160     104.399
  H      376.491    -310.953      94.911
  H      377.571    -310.007      95.906
  H      375.927    -309.474      95.651

 3  4  5  6  7  8  9  10  11  12  23  26  30  31 0
 6-311+G(2d,p)
 ****
 33  35  36  37  38 0
 6-311+G(2d,p)
 ****
 1  2  13  14  15  16  17  18  19  20  21  22  24  25 0
 3-21G
 ****
 27  28  29  32  34  39  40  41  42  43  44  45  46  47  48  49 0
 3-21G
 ****


