%nproc=1
%NoSave
%Mem=1900MB
#P OB98/GEN NMR

erre ene a

0 1
  C      695.522     774.731     495.211
  O      694.317     774.929     495.919
  H      695.597     775.490     494.427
  H      695.511     773.741     494.739
  H      696.391     774.815     495.867
  P      694.158     774.268     497.370
  C      693.951     776.433     498.759
  O      694.752     775.309     498.448
  C      693.512     776.443     500.228
  O      694.669     776.292     501.077
  C      692.819     777.744     500.631
  O      691.427     777.774     500.385
  C      693.108     777.798     502.130
  O      692.101     777.101     502.891
  C      694.461     777.082     502.259
  N      697.756     779.267     505.509
  C      696.656     778.488     505.795
  N      696.374     778.302     507.100
  N      695.890     777.959     504.868
  C      696.234     778.306     503.606
  C      697.307     779.091     503.203
  C      698.179     779.604     504.227
  O      699.184     780.288     504.030
  N      697.306     779.270     501.845
  C      696.211     778.671     501.436
  N      695.564     778.013     502.451
  O      695.259     773.101     497.374
  O      692.802     773.723     497.688
  H      692.387     777.092     503.825
  H      694.953     772.368     497.940
  H      698.328     779.618     506.250
  H      695.850     778.637     500.410
  H      694.474     776.386     503.111
  H      693.112     778.829     502.495
  H      696.877     778.753     507.848
  H      693.307     778.601     500.158
  H      695.460     777.905     507.347
  H      692.867     775.571     500.406
  H      693.072     776.389     498.108
  H      694.484     777.365     498.519
  P      690.740     779.014     499.654
  C      690.659     778.057     497.203
  O      691.183     778.999     498.121
  O      691.544     780.265     500.246
  O      689.263     779.149     499.838
  H      691.029     780.688     500.965
  H      691.088     778.224     496.237
  H      689.596     778.168     497.146
  H      690.897     777.067     497.533

 6  7  8  9  10  11  12  13  14  15  26  29  33  34 0
 6-311+G(2d,p)
 ****
 36  38  39  40  41 0
 6-311+G(2d,p)
 ****
 1  2  3  4  5  16  17  18  19  20  21  22  23  24  25 0
 3-21G
 ****
 27  28  30  31  32  35  37  42  43  44  45  46  47 0
 3-21G
 ****
 48  49 0
 3-21G
 ****


