%nproc=1
%NoSave
%Mem=1900MB
#P OB98/GEN NMR

erre ene a

0 1
  C      341.891     212.299     612.134
  O      341.355     213.447     611.500
  H      341.955     211.494     611.399
  H      341.239     211.985     612.953
  H      342.893     212.510     612.516
  P      341.156     214.745     612.423
  C      338.998     213.916     613.591
  O      339.578     214.857     612.706
  C      337.500     214.168     613.724
  O      337.242     215.350     614.511
  C      336.768     214.351     612.396
  O      336.454     213.102     611.806
  C      335.532     215.126     612.843
  O      334.527     214.240     613.394
  C      336.099     216.042     613.933
  N      334.573     220.141     611.398
  C      333.876     219.007     611.765
  N      332.590     218.928     611.347
  N      334.391     218.030     612.470
  C      335.691     218.224     612.784
  C      336.491     219.313     612.495
  C      335.895     220.405     611.738
  O      336.440     221.461     611.439
  N      337.749     219.154     613.006
  C      337.730     217.967     613.568
  N      336.507     217.353     613.445
  O      341.439     215.968     611.420
  O      342.034     214.816     613.630
  H      334.055     213.805     612.660
  H      341.816     216.712     611.922
  H      334.118     220.866     610.870
  H      338.573     217.507     614.069
  H      335.385     216.219     614.743
  H      335.062     215.652     612.011
  H      332.259     219.458     610.550
  H      337.363     214.984     611.713
  H      332.082     218.091     611.594
  H      337.071     213.317     614.278
  H      339.464     214.011     614.574
  H      339.176     212.904     613.209
  P      336.804     212.906     610.250
  C      334.556     213.836     609.292
  O      335.396     212.694     609.495
  O      337.467     211.459     610.195
  O      337.697     213.947     609.677
  H      337.957     211.338     609.371
  H      333.664     213.537     608.782
  H      335.077     214.562     608.704
  H      334.299     214.262     610.239

 6  7  8  9  10  11  12  13  14  15  26  29  33  34 0
 6-311+G(2d,p)
 ****
 36  38  39  40  41 0
 6-311+G(2d,p)
 ****
 1  2  3  4  5  16  17  18  19  20  21  22  23  24  25 0
 3-21G
 ****
 27  28  30  31  32  35  37  42  43  44  45  46  47 0
 3-21G
 ****
 48  49 0
 3-21G
 ****


