%nproc=1
%NoSave
%Mem=1900MB
#P OB98/GEN NMR

erre ene a

0 1
  C     -491.331      92.562    -480.347
  O     -491.130      93.912    -480.714
  H     -491.675      92.528    -479.311
  H     -490.395      92.002    -480.428
  H     -492.092      92.109    -480.986
  P     -490.570      94.179    -482.194
  C     -489.586      96.364    -481.245
  O     -490.380      95.773    -482.266
  C     -489.894      97.858    -481.130
  O     -489.009      98.585    -482.023
  C     -491.334      98.219    -481.512
  O     -491.785      99.286    -480.677
  C     -491.193      98.727    -482.940
  O     -492.265      99.581    -483.316
  C     -489.824      99.399    -482.880
  N     -488.550     102.706    -486.538
  C     -488.967     102.880    -485.264
  N     -489.262     101.937    -484.347
  C     -489.035     100.706    -484.842
  C     -488.613     100.370    -486.115
  C     -488.375     101.441    -486.994
  N     -487.985     101.276    -488.303
  N     -488.545      98.999    -486.252
  C     -488.910      98.514    -485.081
  N     -489.234      99.512    -484.201
  O     -491.367      93.583    -483.303
  O     -489.061      93.657    -482.072
  H     -493.109      99.088    -483.210
  H     -488.630      93.990    -481.263
  H     -489.085     103.914    -484.946
  H     -488.967      97.463    -484.823
  H     -489.870     100.413    -482.459
  H     -491.179      97.880    -483.634
  H     -492.021      97.376    -481.442
  H     -489.658      98.188    -480.109
  H     -488.521      96.226    -481.470
  H     -487.834     102.100    -488.865
  H     -487.841     100.344    -488.663
  H     -489.813      95.854    -480.304
  P     -492.668      98.947    -479.385
  C     -494.629     100.307    -480.354
  O     -493.803     100.066    -479.224
  O     -491.901      98.641    -478.140
  O     -493.514      97.667    -479.862
  H     -493.548      97.014    -479.136
  H     -495.341     101.070    -480.119
  H     -495.145      99.407    -480.617
  H     -494.024     100.625    -481.177

 6  7  8  9  10  11  12  13  14  15  25  28  32  33  34  35 0
 6-311+G(2d,p)
 ****
 36  39  40 0
 6-311+G(2d,p)
 ****
 1  2  3  4  5  16  17  18  19  20  21  22  23  24 0
 3-21G
 ****
 26  27  29  30  31  37  38  41  42  43  44  45  46  47 0
 3-21G
 ****
 48 0
 3-21G
 ****


