%nproc=1
%NoSave
%Mem=1900MB
#P OB98/GEN NMR

erre ene a

0 1
  C     -340.436     -48.592     420.261
  O     -341.334     -48.249     421.297
  P     -340.969     -47.086     422.341
  C     -340.838     -48.930     424.141
  O     -340.183     -47.816     423.534
  C     -339.820     -49.965     424.613
  O     -339.133     -50.556     423.489
  C     -338.731     -49.402     425.515
  O     -339.226     -49.192     426.828
  C     -337.668     -50.484     425.402
  O     -337.941     -51.578     426.292
  C     -337.814     -50.930     423.930
  N     -336.776     -50.366     423.073
  C     -335.573     -51.080     423.020
  O     -335.420     -52.097     423.699
  N     -334.548     -50.591     422.240
  C     -334.712     -49.480     421.594
  N     -333.662     -49.042     420.849
  C     -335.954     -48.684     421.646
  C     -336.933     -49.179     422.399
  O     -342.116     -46.225     422.757
  O     -339.808     -46.274     421.591
  H     -338.905     -51.755     426.220
  H     -340.169     -45.724     420.855
  H     -336.037     -47.754     421.097
  H     -337.876     -48.657     422.499
  H     -337.762     -52.025     423.854
  H     -336.668     -50.111     425.654
  H     -338.347     -48.468     425.096
  H     -340.368     -50.764     425.134
  H     -332.818     -49.602     420.860
  H     -341.502     -49.383     423.400
  H     -333.666     -48.173     420.333
  H     -341.449     -48.575     424.979
  P     -339.451     -47.707     427.366
  C     -337.542     -48.127     429.029
  O     -338.105     -47.230     428.081
  O     -340.702     -47.496     428.160
  O     -339.482     -46.824     426.027
  H     -340.216     -46.185     426.086
  H     -336.497     -47.860     429.182
  H     -337.597     -49.158     428.668
  H     -338.076     -48.039     429.974
  H     -340.854     -49.383     419.674
  H     -339.508     -48.915     420.685
  H     -340.266     -47.738     419.639

 3  4  5  6  7  8  9  10  11  12  13  23  27  28  29  30  32 0
 6-311+G(2d,p)
 ****
 34  35 0
 6-311+G(2d,p)
 ****
 1  2  14  15  16  17  18  19  20  21  22  24  25  26 0
 3-21G
 ****
 31  33  36  37  38  39  40  41  42  43  44  45  46 0
 3-21G
 ****


