%nproc=1
%NoSave
%Mem=1900MB
#P OB98/GEN NMR

erre ene a

0 1
  C     -452.778    -392.564      10.654
  O     -452.258    -392.357       9.351
  H     -452.529    -391.705      11.275
  H     -452.323    -393.462      11.089
  H     -453.867    -392.672      10.622
  P     -452.787    -393.332       8.192
  C     -453.131    -391.995       5.991
  O     -452.233    -392.735       6.807
  C     -452.466    -391.649       4.657
  O     -451.408    -390.698       4.851
  C     -451.861    -392.846       3.930
  O     -452.829    -393.562       3.182
  C     -450.870    -392.139       3.014
  O     -451.580    -391.563       1.888
  C     -450.333    -391.018       3.921
  N     -445.338    -391.872       3.668
  C     -446.241    -391.596       2.659
  N     -445.742    -391.544       1.403
  N     -447.519    -391.389       2.862
  C     -447.880    -391.495       4.168
  C     -447.074    -391.776       5.254
  C     -445.666    -391.985       5.015
  O     -444.819    -392.227       5.875
  N     -447.797    -391.803       6.418
  C     -449.035    -391.564       6.032
  N     -449.138    -391.374       4.671
  O     -454.356    -393.009       8.144
  O     -452.539    -394.789       8.424
  H     -452.145    -390.858       2.240
  H     -454.839    -393.723       8.606
  H     -444.364    -392.039       3.461
  H     -449.888    -391.507       6.693
  H     -450.099    -390.101       3.356
  H     -450.117    -392.814       2.602
  H     -444.768    -391.715       1.177
  H     -451.307    -393.504       4.624
  H     -446.386    -391.338       0.647
  H     -453.230    -391.161       4.024
  H     -453.407    -391.071       6.510
  H     -454.030    -392.594       5.819
  P     -453.169    -395.069       3.624
  C     -455.652    -394.744       2.938
  O     -454.470    -395.518       2.790
  O     -453.725    -394.883       5.112
  O     -452.018    -396.019       3.582
  H     -453.095    -395.261       5.758
  H     -456.428    -395.158       2.329
  H     -455.459    -393.736       2.634
  H     -455.959    -394.755       3.963

 6  7  8  9  10  11  12  13  14  15  26  29  33  34 0
 6-311+G(2d,p)
 ****
 36  38  39  40  41 0
 6-311+G(2d,p)
 ****
 1  2  3  4  5  16  17  18  19  20  21  22  23  24  25 0
 3-21G
 ****
 27  28  30  31  32  35  37  42  43  44  45  46  47 0
 3-21G
 ****
 48  49 0
 3-21G
 ****


