%nproc=1
%NoSave
%Mem=1900MB
#P OB98/GEN NMR

erre ene a

0 1
  C      126.648     -10.061     579.585
  O      127.512     -10.511     580.610
  H      125.937      -9.349     580.017
  H      126.089     -10.899     579.160
  H      127.217      -9.555     578.798
  P      128.616     -11.623     580.256
  C      128.911     -13.366     582.138
  O      129.272     -12.081     581.651
  C      128.967     -13.385     583.676
  O      127.856     -12.586     584.163
  C      128.836     -14.803     584.253
  O      129.886     -15.137     585.166
  C      127.406     -14.840     584.784
  O      127.190     -15.756     585.838
  C      127.133     -13.371     585.134
  N      125.709     -13.017     585.138
  C      124.844     -13.840     585.844
  O      125.183     -14.835     586.487
  N      123.523     -13.478     585.800
  C      122.997     -12.409     585.140
  O      121.804     -12.124     585.139
  C      123.966     -11.588     584.391
  C      125.256     -11.915     584.422
  O      129.596     -11.246     579.195
  O      127.750     -12.898     579.835
  H      127.300     -16.654     585.474
  H      127.747     -12.989     578.859
  H      122.886     -14.060     586.322
  H      123.583     -10.730     583.845
  H      125.994     -11.338     583.878
  H      127.529     -13.139     586.130
  H      126.740     -15.132     583.960
  H      128.940     -15.561     583.466
  H      129.891     -12.898     584.002
  H      129.616     -14.096     581.730
  H      127.899     -13.618     581.801
  P      130.834     -16.412     585.031
  C      131.247     -16.548     587.621
  O      131.793     -16.463     586.316
  O      131.476     -16.610     583.697
  O      129.828     -17.650     585.276
  H      130.148     -18.393     584.723
  H      132.040     -16.571     588.339
  H      130.663     -17.441     587.706
  H      130.625     -15.697     587.804

 6  7  8  9  10  11  12  13  14  15  16  26  31  32  33  34  35 0
 6-311+G(2d,p)
 ****
 36  37 0
 6-311+G(2d,p)
 ****
 1  2  3  4  5  17  18  19  20  21  22  23  24  25 0
 3-21G
 ****
 27  28  29  30  38  39  40  41  42  43  44  45 0
 3-21G
 ****


