%nproc=1
%NoSave
%Mem=1900MB
#P OB98/GEN NMR

erre ene a

0 1
  C      198.595    -456.290      18.356
  O      198.926    -455.373      19.388
  P      200.481    -455.079      19.652
  C      202.327    -453.904      18.269
  O      201.114    -454.649      18.240
  C      203.174    -454.194      17.035
  O      203.520    -455.608      17.028
  C      202.473    -453.889      15.701
  O      203.401    -453.234      14.822
  C      202.188    -455.262      15.123
  O      202.088    -455.234      13.702
  C      203.387    -456.043      15.661
  N      204.985    -460.200      13.281
  C      205.507    -458.929      13.276
  N      206.585    -458.723      12.485
  N      205.029    -457.942      13.988
  C      203.976    -458.299      14.759
  C      203.369    -459.528      14.854
  C      203.876    -460.596      14.019
  O      203.393    -461.725      13.909
  N      202.336    -459.507      15.762
  C      202.317    -458.269      16.210
  N      203.257    -457.484      15.598
  O      201.079    -456.543      19.910
  O      200.773    -454.169      20.799
  H      201.319    -454.675      13.477
  H      201.528    -456.566      20.778
  H      205.381    -460.922      12.704
  H      201.618    -457.885      16.945
  H      204.300    -455.765      15.123
  H      201.243    -455.637      15.535
  H      207.028    -459.443      11.940
  H      201.567    -453.283      15.796
  H      207.002    -457.798      12.485
  H      204.113    -453.637      17.119
  H      202.891    -454.172      19.166
  H      202.084    -452.837      18.314
  P      202.766    -452.204      13.765
  C      201.164    -450.156      13.996
  O      201.735    -451.303      14.604
  O      201.818    -453.129      12.871
  O      203.776    -451.463      12.955
  H      201.684    -452.727      11.987
  H      201.380    -450.110      12.925
  H      201.560    -449.263      14.478
  H      200.075    -450.191      14.141
  H      197.531    -456.388      18.293
  H      199.029    -457.244      18.574
  H      198.976    -455.930      17.423

 3  4  5  6  7  8  9  10  11  12  23  26  30  31  33  0
 6-311+G(2d,p)
 ****
 35  36  37  38 0
 6-311+G(2d,p)
 ****
 1  2  13  14  15  16  17  18  19  20  21  22  24  25  27  28  29 0
 3-21G
 ****
 32  34  39  40  41  42  43  44  45  46  47  48  49 0
 3-21G
 ****


