%nproc=1
%NoSave
%Mem=1900MB
#P OB98/GEN NMR

erre ene a

0 1
  C      -69.761      -0.935     144.142
  O      -70.500      -0.102     143.270
  H      -70.247      -1.910     144.214
  H      -68.758      -1.072     143.731
  H      -69.678      -0.484     145.134
  P      -71.893       0.479     143.815
  C      -71.656       2.503     142.208
  O      -72.471       1.430     142.654
  C      -72.388       3.325     141.148
  O      -72.320       2.612     139.881
  C      -73.870       3.585     141.463
  O      -74.196       4.915     141.045
  C      -74.594       2.595     140.566
  O      -75.919       3.008     140.247
  C      -73.660       2.547     139.360
  N      -75.445       0.747     134.952
  C      -75.107       1.993     135.346
  N      -74.584       2.380     136.529
  C      -74.356       1.315     137.316
  C      -74.640      -0.014     137.051
  C      -75.231      -0.285     135.805
  N      -75.643      -1.540     135.420
  N      -74.310      -0.803     138.135
  C      -73.859       0.036     139.047
  N      -73.869       1.327     138.598
  O      -71.416       1.512     144.943
  O      -72.847      -0.534     144.352
  H      -75.876       3.841     139.739
  H      -71.316       1.045     145.793
  H      -75.289       2.785     134.625
  H      -73.545      -0.231     140.046
  H      -73.807       3.393     138.677
  H      -74.647       1.620     141.064
  H      -74.128       3.455     142.520
  H      -71.852       4.272     141.011
  H      -70.738       2.098     141.770
  H      -76.153      -1.621     134.554
  H      -75.591      -2.296     136.084
  H      -71.389       3.135     143.061
  P      -74.499       5.994     142.192
  C      -73.494       8.109     141.052
  O      -74.661       7.433     141.507
  O      -73.104       6.107     142.967
  O      -75.611       5.602     143.112
  H      -73.256       6.289     143.912
  H      -73.771       9.049     140.623
  H      -73.001       7.512     140.314
  H      -72.833       8.274     141.877

 6  7  8  9  10  11  12  13  14  15  25  28  32  33  34  35 0
 6-311+G(2d,p)
 ****
 36  39  40 0
 6-311+G(2d,p)
 ****
 1  2  3  4  5  16  17  18  19  20  21  22  23  24 0
 3-21G
 ****
 26  27  29  30  31  37  38  41  42  43  44  45  46  47 0
 3-21G
 ****
 48 0
 3-21G
 ****


