%nproc=1
%NoSave
%Mem=1900MB
#P OB98/GEN NMR

erre ene a

0 1
  C     -126.671    1164.823    -171.665
  O     -125.388    1165.260    -172.112
  P     -124.114    1164.330    -171.887
  C     -123.681    1163.102    -174.132
  O     -123.314    1164.201    -173.268
  C     -123.200    1163.349    -175.556
  O     -123.831    1164.472    -176.152
  C     -121.686    1163.637    -175.632
  O     -120.946    1162.465    -175.429
  C     -121.580    1164.252    -177.025
  O     -121.519    1163.234    -178.039
  C     -122.934    1165.034    -177.139
  N     -122.771    1166.475    -176.958
  C     -122.869    1167.250    -178.121
  O     -123.006    1166.702    -179.229
  N     -122.740    1168.593    -178.022
  C     -122.559    1169.159    -176.847
  N     -122.446    1170.515    -176.797
  C     -122.439    1168.372    -175.600
  C     -122.553    1167.068    -175.717
  O     -124.399    1163.009    -171.207
  O     -123.131    1165.233    -171.001
  H     -121.832    1163.661    -178.856
  H     -122.601    1164.669    -170.433
  H     -122.305    1168.874    -174.653
  H     -122.499    1166.416    -174.865
  H     -123.378    1164.874    -178.117
  H     -120.679    1164.884    -177.107
  H     -121.416    1164.389    -174.857
  H     -123.437    1162.451    -176.153
  H     -122.538    1171.035    -177.683
  H     -124.768    1162.981    -174.124
  H     -122.359    1171.036    -175.930
  H     -123.277    1162.159    -173.722
  P     -120.057    1162.383    -174.089
  C     -120.552    1159.883    -173.524
  O     -119.581    1160.843    -173.927
  O     -121.154    1162.551    -172.930
  O     -118.960    1163.376    -173.980
  H     -120.728    1163.028    -172.168
  H     -120.160    1158.876    -173.777
  H     -121.491    1160.027    -174.039
  H     -120.710    1159.954    -172.441
  H     -127.403    1165.568    -171.898
  H     -126.646    1164.666    -170.607
  H     -126.927    1163.907    -172.155

 3  4  5  6  7  8  9  10  11  12  13  23  27  28  29  30  32 0
 6-311+G(2d,p)
 ****
 34  35 0
 6-311+G(2d,p)
 ****
 1  2  14  15  16  17  18  19  20  21  22  24  25  26 0
 3-21G
 ****
 31  33  36  37  38  39  40  41  42  43  44  45  46 0
 3-21G
 ****


