%nproc=1
%NoSave
%Mem=1900MB
#P OB98/GEN NMR

erre ene a

0 1
  C     -134.071     -73.746     -77.618
  O     -133.760     -75.016     -78.198
  P     -132.206     -75.391     -78.338
  C     -131.971     -77.968     -78.462
  O     -132.089     -76.751     -79.184
  C     -133.338     -78.466     -77.978
  O     -134.275     -78.567     -79.088
  C     -133.289     -79.843     -77.311
  O     -134.286     -79.864     -76.281
  C     -133.719     -80.777     -78.424
  O     -134.170     -82.030     -77.913
  C     -134.781     -79.918     -79.106
  N     -136.365     -83.821     -81.988
  C     -136.208     -83.688     -80.654
  N     -135.757     -82.618     -79.964
  C     -135.498     -81.597     -80.798
  C     -135.601     -81.586     -82.179
  C     -136.057     -82.769     -82.783
  N     -136.193     -82.915     -84.144
  N     -135.198     -80.366     -82.686
  C     -134.853     -79.660     -81.629
  N     -135.046     -80.348     -80.466
  O     -131.803     -75.835     -76.854
  O     -131.354     -74.265     -78.820
  H     -133.414     -82.469     -77.469
  H     -131.241     -75.152     -76.444
  H     -136.473     -84.560     -80.060
  H     -134.457     -78.656     -81.651
  H     -135.739     -79.933     -78.571
  H     -132.876     -80.966     -79.099
  H     -132.315     -80.113     -76.890
  H     -133.744     -77.730     -77.273
  H     -131.316     -77.828     -77.597
  H     -136.499     -83.807     -84.499
  H     -135.923     -82.155     -84.749
  H     -131.478     -78.713     -79.094
  P     -133.788     -79.528     -74.796
  C     -135.786     -78.252     -73.745
  O     -135.102     -79.482     -73.883
  O     -133.334     -77.996     -74.887
  O     -132.687     -80.411     -74.307
  H     -132.666     -77.802     -74.204
  H     -136.863     -78.443     -73.771
  H     -135.534     -77.547     -74.542
  H     -135.528     -77.807     -72.781
  H     -135.133     -73.620     -77.583
  H     -133.639     -72.967     -78.212
  H     -133.673     -73.700     -76.626

 3  4  5  6  7  8  9  10  11  12  22  25  29  30  31  32 0
 6-311+G(2d,p)
 ****
 33  36  37 0
 6-311+G(2d,p)
 ****
 1  2  13  14  15  16  17  18  19  20  21  23  24  26 0
 3-21G
 ****
 27  28  34  35  38  39  40  41  42  43  44  45  46  47  48 0
 3-21G
 ****


