%nproc=1
%NoSave
%Mem=1900MB
#P OB98/GEN NMR

erre ene a

0 1
  C      323.839     867.741     948.849
  O      324.856     867.095     948.099
  H      323.108     868.157     948.153
  H      324.263     868.549     949.449
  H      323.332     867.014     949.505
  P      326.023     866.388     948.946
  C      327.831     864.615     948.349
  O      326.560     865.156     948.042
  C      327.926     863.201     947.770
  O      327.226     862.276     948.622
  C      327.286     863.043     946.405
  O      328.114     863.539     945.354
  C      327.075     861.539     946.349
  O      328.265     860.861     945.922
  C      326.743     861.184     947.798
  N      322.832     858.003     946.982
  C      324.145     857.885     946.740
  N      325.138     858.783     946.999
  C      324.630     859.878     947.591
  C      323.311     860.128     947.908
  C      322.365     859.138     947.589
  N      321.027     859.263     947.803
  N      323.192     861.386     948.484
  C      324.412     861.866     948.527
  N      325.315     860.998     948.002
  O      325.235     865.669     950.136
  O      327.089     867.310     949.448
  H      328.988     861.188     946.491
  H      325.290     866.214     950.949
  H      324.461     856.961     946.259
  H      324.677     862.852     948.917
  H      327.242     860.276     948.134
  H      326.274     861.284     945.640
  H      326.293     863.542     946.380
  H      328.988     862.900     947.732
  H      327.963     864.571     949.429
  H      328.604     865.260     947.921
  H      320.417     858.535     947.488
  H      320.675     860.141     948.148
  P      327.411     863.889     943.962
  C      328.280     864.893     941.704
  O      328.449     864.756     943.111
  O      326.262     864.946     944.350
  O      326.854     862.719     943.226
  H      325.476     864.814     943.773
  H      329.064     865.504     941.308
  H      327.335     865.351     941.501
  H      328.314     863.927     941.245

 6  7  8  9  10  11  12  13  14  15  25  28  32  33  34  35 0
 6-311+G(2d,p)
 ****
 36  37  40 0
 6-311+G(2d,p)
 ****
 1  2  3  4  5  16  17  18  19  20  21  22  23  24 0
 3-21G
 ****
 26  27  29  30  31  38  39 41  42  43  44  45  46  47  48 0
 3-21G
 ****


