%nproc=1
%NoSave
%Mem=1900MB
#P OB98/GEN NMR

erre ene a

0 1
  C      731.434     224.336    -716.940
  O      732.244     224.478    -715.791
  H      731.968     224.745    -717.799
  H      730.504     224.902    -716.807
  H      731.207     223.285    -717.132
  P      731.774     223.797    -714.424
  C      733.593     222.033    -714.921
  O      732.270     222.272    -714.469
  C      734.152     220.749    -714.301
  O      734.074     220.859    -712.851
  C      733.393     219.465    -714.705
  O      734.342     218.389    -714.683
  C      732.400     219.353    -713.557
  O      731.751     218.109    -713.526
  C      733.340     219.704    -712.389
  N      732.667     219.986    -711.120
  C      731.871     218.986    -710.576
  O      731.699     217.882    -711.076
  N      731.256     219.299    -709.385
  C      731.374     220.476    -708.709
  O      730.830     220.689    -707.634
  C      732.221     221.495    -709.344
  C      732.820     221.209    -710.498
  O      730.337     223.983    -714.068
  O      732.740     224.449    -713.323
  H      732.261     225.148    -712.838
  H      731.265     218.024    -712.679
  H      730.688     218.580    -708.975
  H      732.321     222.452    -708.839
  H      733.461     221.937    -710.986
  H      734.065     218.891    -712.238
  H      731.614     220.097    -713.668
  H      732.935     219.536    -715.692
  H      735.220     220.674    -714.556
  H      734.221     222.888    -714.628
  H      733.594     221.955    -716.015
  P      734.385     217.229    -715.789
  C      736.380     218.604    -716.680
  O      735.327     217.726    -717.005
  O      733.035     216.761    -716.226
  O      735.221     216.034    -715.115
  H      734.954     215.187    -715.520
  H      736.922     218.854    -717.568
  H      737.038     218.129    -715.982
  H      735.980     219.495    -716.243

 6  7  8  9  10  11  12  13  14  15  16  27  31  32  33  34  35 0
 6-311+G(2d,p)
 ****
 36  37 0
 6-311+G(2d,p)
 ****
 1  2  3  4  5  17  18  19  20  21  22  23  24  25 0
 3-21G
 ****
 26  28  29  30  38  39  40  41  42  43  44  45 0
 3-21G
 ****


