%nproc=1
%NoSave
%Mem=1900MB
#P OB98/GEN NMR

erre ene a

0 1
  C     -420.142     400.718    -387.729
  O     -421.326     400.697    -386.945
  P     -421.765     399.294    -386.302
  C     -423.247     397.295    -387.059
  O     -422.583     398.498    -387.431
  C     -424.598     397.182    -387.777
  O     -425.545     398.089    -387.142
  C     -424.565     397.522    -389.277
  O     -425.523     396.666    -389.914
  C     -425.029     398.968    -389.276
  O     -425.455     399.426    -390.548
  C     -426.104     398.908    -388.199
  N     -429.728     402.529    -388.129
  C     -429.702     401.283    -388.676
  N     -428.702     400.376    -388.646
  C     -427.652     400.863    -387.954
  C     -427.525     402.100    -387.360
  C     -428.623     402.965    -387.462
  N     -428.656     404.226    -386.918
  N     -426.282     402.237    -386.768
  C     -425.669     401.099    -387.006
  N     -426.465     400.217    -387.692
  O     -422.917     399.716    -385.266
  O     -420.669     398.530    -385.635
  H     -424.783     399.214    -391.223
  H     -422.852     399.194    -384.444
  H     -430.607     400.986    -389.211
  H     -424.659     400.851    -386.697
  H     -427.025     398.420    -388.549
  H     -424.203     399.604    -388.980
  H     -423.572     397.365    -389.726
  H     -424.977     396.165    -387.623
  H     -423.428     397.303    -385.987
  H     -429.406     404.840    -387.216
  H     -427.762     404.615    -386.615
  H     -422.602     396.442    -387.294
  P     -425.238     396.183    -391.425
  C     -426.326     396.801    -393.666
  O     -426.131     397.168    -392.321
  O     -426.093     394.835    -391.472
  O     -423.794     396.032    -391.810
  H     -426.999     394.971    -391.158
  H     -427.032     397.502    -394.128
  H     -426.753     395.785    -393.727
  H     -425.374     396.838    -394.211
  H     -419.972     401.710    -388.091
  H     -420.251     400.049    -388.557
  H     -419.311     400.410    -387.129

 3  4  5  6  7  8  9  10  11  12  22  25  29  30  31  32 0
 6-311+G(2d,p)
 ****
 33  36  37 0
 6-311+G(2d,p)
 ****
 1  2  13  14  15  16  17  18  19  20  21  23  24  26 0
 3-21G
 ****
 27  28  34  35  38  39  40  41  42  43  44  45  46  47  48 0
 3-21G
 ****


