%nproc=1
%NoSave
%Mem=1900MB
#P OB98/GEN NMR

erre ene a

0 1
  C      113.872    -573.655     457.120
  O      114.907    -572.741     456.730
  P      116.416    -573.330     456.786
  C      117.334    -571.005     457.474
  O      117.415    -572.093     456.574
  C      118.657    -570.219     457.510
  O      119.760    -571.095     457.876
  C      119.013    -569.563     456.174
  O      119.660    -568.313     456.476
  C      120.009    -570.555     455.584
  O      120.772    -570.026     454.509
  C      120.780    -570.930     456.844
  N      125.531    -572.789     456.823
  C      125.051    -571.539     456.979
  N      123.762    -571.121     456.962
  C      122.934    -572.156     456.782
  C      123.277    -573.491     456.613
  C      124.642    -573.812     456.644
  N      125.150    -575.072     456.463
  N      122.137    -574.268     456.426
  C      121.135    -573.405     456.423
  N      121.565    -572.137     456.703
  O      116.536    -574.180     455.442
  O      116.681    -574.152     458.005
  H      121.389    -570.705     454.194
  H      116.411    -575.134     455.620
  H      125.803    -570.755     457.110
  H      120.102    -573.631     456.205
  H      121.445    -570.136     457.165
  H      119.448    -571.417     455.191
  H      118.152    -569.370     455.537
  H      118.572    -569.450     458.298
  H      117.106    -571.366     458.488
  H      126.147    -575.197     456.501
  H      124.516    -575.858     456.317
  H      116.499    -570.364     457.199
  P      118.752    -567.018     456.753
  C      119.611    -565.709     454.717
  O      119.608    -565.797     456.148
  O      119.036    -566.800     458.338
  O      117.317    -567.120     456.398
  H      119.986    -566.826     458.533
  H      120.144    -564.808     454.426
  H      118.586    -565.668     454.338
  H      120.141    -566.577     454.300
  H      112.921    -573.169     457.047
  H      114.036    -573.970     458.130
  H      113.887    -574.508     456.474

 3  4  5  6  7  8  9  10  11  12  22  25  29  30  31  32 0
 6-311+G(2d,p)
 ****
 33  36  37 0
 6-311+G(2d,p)
 ****
 1  2  13  14  15  16  17  18  19  20  21  23  24  26 0
 3-21G
 ****
 27  28  34  35  38  39  40  41  42  43  44  45  46  47  48 0
 3-21G
 ****


