%nproc=1
%NoSave
%Mem=1900MB
#P OB98/GEN NMR

erre ene a

0 1
  C     -253.330      75.237     -27.471
  O     -252.133      75.795     -26.968
  P     -251.127      74.999     -26.016
  C     -249.247      76.781     -26.252
  O     -250.101      76.058     -25.371
  C     -248.675      78.060     -25.620
  O     -249.758      78.954     -25.284
  C     -247.965      77.726     -24.304
  O     -246.626      77.269     -24.313
  C     -248.228      78.922     -23.398
  O     -247.134      79.841     -23.371
  C     -249.463      79.576     -24.022
  N     -252.265      81.942     -20.520
  C     -251.281      82.456     -21.342
  N     -250.871      83.713     -21.054
  N     -250.741      81.793     -22.330
  C     -251.187      80.519     -22.431
  C     -252.165      79.900     -21.686
  C     -252.785      80.659     -20.623
  O     -253.597      80.209     -19.819
  N     -252.303      78.578     -22.022
  C     -251.381      78.381     -22.943
  N     -250.653      79.519     -23.194
  O     -250.585      73.707     -26.538
  O     -252.084      74.651     -24.765
  H     -247.378      80.580     -22.785
  H     -251.807      73.781     -24.416
  H     -252.589      82.475     -19.722
  H     -251.179      77.433     -23.428
  H     -249.272      80.637     -24.235
  H     -248.383      78.596     -22.363
  H     -251.160      84.198     -20.214
  H     -248.523      76.898     -23.846
  H     -250.039      84.060     -21.522
  H     -248.049      78.605     -26.332
  H     -249.826      77.017     -27.149
  H     -248.419      76.135     -26.565
  P     -245.923      76.369     -23.193
  C     -243.543      77.160     -23.698
  O     -244.576      77.098     -22.730
  O     -245.379      75.091     -23.994
  O     -246.820      75.936     -22.076
  H     -245.255      74.345     -23.380
  H     -242.598      77.391     -23.198
  H     -243.765      77.953     -24.420
  H     -243.443      76.207     -24.225
  H     -253.831      75.959     -28.081
  H     -253.964      74.958     -26.655
  H     -253.101      74.372     -28.057

 3  4  5  6  7  8  9  10  11  12  23  26  30  31 0
 6-311+G(2d,p)
 ****
 33  35  36  37  38 0
 6-311+G(2d,p)
 ****
 1  2  13  14  15  16  17  18  19  20  21  22  24  25 0
 3-21G
 ****
 27  28  29  32  34  39  40  41  42  43  44  45  46  47  48  49 0
 3-21G
 ****


