%nproc=1
%NoSave
%Mem=1900MB
#P OB98/GEN NMR

erre ene a

0 1
  C     1164.871     196.096    -593.620
  O     1165.975     196.813    -594.142
  H     1164.585     196.547    -592.661
  H     1165.139     195.053    -593.449
  H     1164.024     196.159    -594.308
  P     1166.583     196.291    -595.530
  C     1167.668     194.279    -594.317
  O     1167.871     195.442    -595.109
  C     1168.901     193.373    -594.366
  O     1168.917     192.624    -595.593
  C     1170.225     194.116    -594.291
  O     1170.553     194.410    -592.944
  C     1171.176     193.085    -594.886
  O     1171.517     192.110    -593.882
  C     1170.305     192.419    -595.976
  N     1168.212     193.042    -600.631
  C     1167.811     192.326    -599.551
  N     1168.441     192.161    -598.367
  C     1169.609     192.839    -598.354
  C     1170.161     193.590    -599.376
  C     1169.397     193.694    -600.562
  N     1169.807     194.417    -601.661
  N     1171.373     194.133    -598.996
  C     1171.516     193.744    -597.744
  N     1170.501     192.930    -597.330
  O     1166.784     197.328    -596.581
  O     1165.523     195.145    -595.908
  H     1171.619     192.601    -593.034
  H     1165.271     194.636    -595.112
  H     1166.858     191.824    -599.660
  H     1172.340     194.053    -597.099
  H     1170.479     191.338    -596.016
  H     1172.111     193.522    -595.238
  H     1170.231     195.014    -594.918
  H     1168.803     192.642    -593.540
  H     1166.787     193.727    -594.677
  H     1169.312     194.274    -602.524
  H     1170.756     194.791    -601.659
  H     1167.465     194.606    -593.290
  P     1170.675     195.928    -592.413
  C     1172.671     196.830    -593.777
  O     1172.231     196.279    -592.533
  O     1170.035     196.162    -591.090
  O     1170.021     196.796    -593.591
  H     1169.802     197.695    -593.246
  H     1173.723     197.020    -593.731
  H     1172.151     197.746    -593.965
  H     1172.468     196.136    -594.566

 6  7  8  9  10  11  12  13  14  15  25  28  32  33  34  35 0
 6-311+G(2d,p)
 ****
 36  39  40 0
 6-311+G(2d,p)
 ****
 1  2  3  4  5  16  17  18  19  20  21  22  23  24 0
 3-21G
 ****
 26  27  29  30  31  37  38  41  42  43  44  45  46  47 0
 3-21G
 ****
 48 0
 3-21G
 ****


