%nproc=1
%NoSave
%Mem=1900MB
#P OB98/GEN NMR

erre ene a

0 1
  C     -131.463    -896.990    -136.173
  O     -130.478    -897.580    -135.339
  P     -129.291    -896.770    -134.632
  C     -129.259    -898.310    -132.506
  O     -129.405    -897.000    -133.057
  C     -128.769    -898.300    -131.042
  O     -127.437    -897.740    -130.985
  C     -129.654    -897.420    -130.166
  O     -130.874    -897.900    -129.651
  C     -128.711    -896.830    -129.134
  O     -128.717    -897.580    -127.925
  C     -127.343    -896.910    -129.823
  N     -123.712    -893.340    -129.193
  C     -123.864    -894.560    -128.547
  N     -122.978    -894.840    -127.576
  N     -124.818    -895.410    -128.826
  C     -125.694    -894.950    -129.766
  C     -125.662    -893.770    -130.457
  C     -124.551    -892.860    -130.206
  O     -124.375    -891.790    -130.757
  N     -126.737    -893.640    -131.317
  C     -127.431    -894.760    -131.104
  N     -126.830    -895.590    -130.170
  O     -129.088    -895.360    -135.089
  O     -127.962    -897.630    -135.036
  H     -128.355    -898.470    -128.137
  H     -127.236    -896.960    -135.119
  H     -122.937    -892.740    -128.983
  H     -128.350    -895.010    -131.617
  H     -126.601    -897.350    -129.165
  H     -129.027    -895.800    -128.859
  H     -122.299    -894.190    -127.233
  H     -129.973    -896.550    -130.807
  H     -123.200    -895.600    -126.943
  H     -128.685    -899.340    -130.667
  H     -128.555    -898.850    -133.146
  H     -130.226    -898.840    -132.576
  P     -132.361    -897.390    -130.011
  C     -133.021    -899.500    -131.301
  O     -132.790    -898.120    -131.363
  O     -132.128    -895.870    -130.466
  O     -133.351    -897.470    -128.883
  H     -132.986    -895.390    -130.459
  H     -133.013    -899.910    -132.310
  H     -134.002    -899.690    -130.854
  H     -132.242    -900.000    -130.706
  H     -132.138    -897.746    -136.517
  H     -130.988    -896.526    -137.012
  H     -132.005    -896.253    -135.618

 3  4  5  6  7  8  9  10  11  12  23  26  30  31 0
 6-311+G(2d,p)
 ****
 33  35  36  37  38 0
 6-311+G(2d,p)
 ****
 1  2  13  14  15  16  17  18  19  20  21  22  24  25 0
 3-21G
 ****
 27  28  29  32  34  39  40  41  42  43  44  45  46  47  48  49 0
 3-21G
 ****


