%nproc=1
%NoSave
%Mem=1900MB
#P OB98/GEN NMR

erre ene a

0 1
  C      556.592     -24.245    -694.983
  O      555.979     -23.416    -694.021
  H      556.075     -25.208    -694.999
  H      557.639     -24.412    -694.724
  H      556.526     -23.794    -695.978
  P      556.471     -21.891    -693.936
  C      553.996     -21.133    -694.171
  O      555.332     -21.001    -694.640
  C      553.396     -19.756    -693.886
  O      554.200     -19.097    -692.872
  C      553.342     -18.844    -695.112
  O      552.129     -18.085    -695.067
  C      554.525     -17.909    -694.917
  O      554.360     -16.661    -695.592
  C      554.592     -17.811    -693.388
  N      555.928     -17.431    -692.937
  C      556.057     -16.169    -692.351
  O      555.077     -15.431    -692.242
  N      557.302     -15.746    -691.953
  C      558.343     -16.482    -692.203
  N      559.552     -15.994    -691.816
  C      558.261     -17.791    -692.879
  C      557.037     -18.203    -693.212
  O      557.676     -21.831    -694.984
  O      556.870     -21.425    -692.575
  H      555.209     -16.164    -695.521
  H      558.357     -21.189    -694.704
  H      559.157     -18.356    -693.089
  H      556.877     -19.150    -693.721
  H      553.869     -17.069    -693.018
  H      555.431     -18.383    -695.307
  H      553.398     -19.388    -696.059
  H      552.395     -19.895    -693.459
  H      559.566     -15.085    -691.367
  H      554.001     -21.718    -693.246
  H      560.426     -16.466    -691.997
  H      553.400     -21.666    -694.921
  P      550.841     -18.751    -695.747
  C      549.435     -18.092    -693.659
  O      549.788     -19.111    -694.587
  O      551.371     -20.180    -696.232
  O      550.285     -17.955    -696.877
  H      551.449     -20.193    -697.205
  H      548.731     -18.481    -692.953
  H      548.997     -17.268    -694.183
  H      550.312     -17.761    -693.143

 6  7  8  9  10  11  12  13  14  15  16  26  30  31  32  33  35 0
 6-311+G(2d,p)
 ****
 37  38 0
 6-311+G(2d,p)
 ****
 1  2  3  4  5  17  18  19  20  21  22  23  24  25 0
 3-21G
 ****
 27  28  29  34  36  39  40  41  42  43  44  45  46 0
 3-21G
 ****


