%nproc=1
%NoSave
%Mem=1900MB
#P OB98/GEN NMR

erre ene a

0 1
  C       45.812    -189.809     268.997
  O       44.908    -189.274     269.979
  P       43.624    -190.139     270.412
  C       41.485    -191.082     269.233
  O       42.616    -190.225     269.166
  C       40.232    -190.340     268.758
  O       39.994    -189.173     269.582
  C       40.318    -189.814     267.335
  O       40.134    -190.839     266.375
  C       39.200    -188.772     267.332
  O       37.923    -189.391     267.101
  C       39.285    -188.212     268.766
  N       39.913    -186.895     268.822
  C       39.195    -185.844     268.271
  O       38.109    -185.986     267.711
  N       39.781    -184.608     268.363
  C       41.022    -184.343     268.873
  O       41.501    -183.219     268.906
  C       41.768    -185.511     269.364
  C       41.190    -186.714     269.313
  O       42.853    -189.125     271.390
  O       43.915    -191.427     271.110
  H       37.969    -189.806     266.215
  H       42.336    -189.633     272.044
  H       39.263    -183.822     267.998
  H       42.764    -185.347     269.755
  H       41.732    -187.586     269.672
  H       38.279    -188.136     269.199
  H       39.334    -188.013     266.553
  H       41.278    -189.302     267.180
  H       39.372    -191.015     268.870
  H       41.340    -191.407     270.265
  H       41.669    -191.963     268.610
  P       41.446    -191.343     265.595
  C       43.049    -190.188     263.885
  O       41.848    -190.134     264.624
  O       40.815    -192.461     264.634
  O       42.516    -191.836     266.512
  H       39.914    -192.233     264.349
  H       43.295    -191.211     263.590
  H       43.865    -189.772     264.489
  H       42.933    -189.581     262.981
  H       46.606    -189.112     268.826
  H       45.284    -189.981     268.082
  H       46.219    -190.732     269.353

 3  4  5  6  7  8  9  10  11  12  13  23  28  29  30  31  32 0
 6-311+G(2d,p)
 ****
 33  34 0
 6-311+G(2d,p)
 ****
 1  2  14  15  16  17  18  19  20  21  22  24  25  26 0
 3-21G
 ****
 27  35  36  37  38  39  40  41  42  43  44  45 0
 3-21G
 ****


