%nproc=1
%NoSave
%Mem=1900MB
#P OB98/GEN NMR

erre ene a

0 1
  C     -128.510    -180.673     189.095
  O     -128.430    -180.241     190.438
  P     -128.900    -181.200     191.637
  C     -126.593    -181.175     192.786
  O     -127.574    -181.967     192.118
  C     -125.187    -181.715     192.512
  O     -124.781    -181.409     191.164
  C     -124.109    -181.123     193.414
  O     -124.155    -181.717     194.698
  C     -122.852    -181.440     192.613
  O     -122.414    -182.788     192.844
  C     -123.344    -181.268     191.157
  N     -122.925    -179.995     190.579
  C     -121.800    -180.046     189.748
  O     -121.203    -181.108     189.565
  N     -121.344    -178.878     189.179
  C     -121.950    -177.761     189.446
  N     -121.450    -176.634     188.863
  C     -123.123    -177.658     190.339
  C     -123.548    -178.805     190.867
  O     -130.071    -182.075     191.328
  O     -129.173    -180.170     192.833
  H     -123.129    -183.368     192.512
  H     -130.014    -179.666     192.691
  H     -123.582    -176.706     190.535
  H     -124.400    -178.825     191.539
  H     -122.957    -182.075     190.524
  H     -122.020    -180.781     192.882
  H     -124.239    -180.037     193.481
  H     -125.217    -182.809     192.619
  H     -120.631    -176.738     188.278
  H     -126.791    -181.214     193.860
  H     -121.822    -175.712     189.025
  H     -126.682    -180.133     192.452
  P     -124.116    -180.794     196.003
  C     -125.155    -182.601     197.502
  O     -125.276    -181.286     196.991
  O     -124.079    -179.322     195.747
  O     -122.781    -181.270     196.755
  H     -122.290    -180.482     197.065
  H     -125.788    -182.694     198.385
  H     -124.120    -182.821     197.779
  H     -125.490    -183.319     196.745
  H     -128.153    -179.898     188.449
  H     -129.528    -180.898     188.853
  H     -127.910    -181.550     188.966

 3  4  5  6  7  8  9  10  11  12  13  23  27  28  29  30  32 0
 6-311+G(2d,p)
 ****
 34  35 0
 6-311+G(2d,p)
 ****
 1  2  14  15  16  17  18  19  20  21  22  24  25  26 0
 3-21G
 ****
 31  33  36  37  38  39  40  41  42  43  44  45  46 0
 3-21G
 ****


