%nproc=1
%NoSave
%Mem=1900MB
#P OB98/GEN NMR

erre ene a

0 1
  C     -143.305      80.307     -78.923
  O     -142.042      80.914     -78.758
  H     -144.012      80.771     -78.231
  H     -143.240      79.241     -78.692
  H     -143.669      80.445     -79.945
  P     -140.881      80.498     -79.783
  C     -141.395      82.427     -81.445
  O     -141.338      81.025     -81.233
  C     -141.290      82.744     -82.937
  O     -142.327      82.013     -83.643
  C     -141.459      84.230     -83.263
  O     -140.560      84.571     -84.321
  C     -142.888      84.330     -83.763
  O     -143.093      85.445     -84.629
  C     -143.081      82.959     -84.424
  N     -144.494      82.595     -84.499
  C     -145.200      83.045     -85.617
  O     -144.633      83.722     -86.477
  N     -146.539      82.771     -85.710
  C     -147.143      82.175     -84.729
  N     -148.479      81.957     -84.868
  C     -146.452      81.742     -83.499
  C     -145.141      81.975     -83.455
  O     -141.044      78.912     -79.904
  O     -139.502      80.901     -79.387
  H     -142.961      86.267     -84.108
  H     -140.184      78.478     -80.062
  H     -147.003      81.273     -82.698
  H     -144.551      81.699     -82.589
  H     -142.664      82.958     -85.440
  H     -143.568      84.438     -82.910
  H     -141.275      84.883     -82.405
  H     -140.328      82.370     -83.305
  H     -148.920      82.285     -85.720
  H     -140.557      82.901     -80.922
  H     -149.056      81.544     -84.152
  H     -142.332      82.819     -81.036
  P     -138.996      84.584     -83.965
  C     -138.203      82.207     -84.649
  O     -138.556      83.088     -83.591
  O     -138.943      85.357     -82.566
  O     -138.151      85.255     -84.998
  H     -138.557      86.243     -82.689
  H     -137.935      81.253     -84.245
  H     -137.372      82.612     -85.188
  H     -139.036      82.092     -85.311

 6  7  8  9  10  11  12  13  14  15  16  26  30  31  32  33  35 0
 6-311+G(2d,p)
 ****
 37  38 0
 6-311+G(2d,p)
 ****
 1  2  3  4  5  17  18  19  20  21  22  23  24  25 0
 3-21G
 ****
 27  28  29  34  36  39  40  41  42  43  44  45  46 0
 3-21G
 ****


