%nproc=1
%NoSave
%Mem=1900MB
#P OB98/GEN NMR

erre ene a

0 1
  C     -111.681      98.680     160.235
  O     -111.128      99.641     159.363
  H     -112.140      97.889     159.637
  H     -112.453      99.147     160.852
  H     -110.917      98.235     160.877
  P     -110.022     100.646     159.929
  C     -111.313     102.808     159.362
  O     -110.761     101.996     160.390
  C     -111.217     104.295     159.703
  O     -111.825     104.539     160.989
  C     -109.769     104.782     159.799
  O     -109.204     105.193     158.566
  C     -109.897     105.960     160.762
  O     -110.195     107.178     160.062
  C     -111.070     105.556     161.661
  N     -109.102     106.732     166.231
  C     -109.197     107.521     165.099
  N     -108.669     108.760     165.196
  N     -109.746     107.116     163.984
  C     -110.139     105.822     164.010
  C     -110.076     104.938     165.064
  C     -109.536     105.417     166.317
  O     -109.443     104.764     167.351
  N     -110.534     103.693     164.705
  C     -110.789     103.805     163.417
  N     -110.641     105.097     162.970
  O     -109.238     101.118     158.610
  O     -109.069     100.063     160.928
  H     -110.184     107.909     160.709
  H     -108.308     101.303     158.832
  H     -108.696     107.108     167.068
  H     -111.124     102.999     162.774
  H     -111.752     106.399     161.829
  H     -108.960     106.127     161.299
  H     -108.161     109.092     165.999
  H     -109.136     104.025     160.270
  H     -108.549     109.300     164.337
  H     -111.786     104.873     158.964
  H     -112.359     102.514     159.263
  H     -110.821     102.601     158.408
  P     -107.620     105.289     158.381
  C     -106.916     107.779     158.819
  O     -107.074     106.466     159.308
  O     -107.464     105.879     156.903
  O     -106.874     104.006     158.553
  H     -107.277     105.165     156.265
  H     -106.540     108.407     159.599
  H     -107.862     108.152     158.486
  H     -106.226     107.774     158.001

 6  7  8  9  10  11  12  13  14  15  26  29  33  34 0
 6-311+G(2d,p)
 ****
 36  38  39  40  41 0
 6-311+G(2d,p)
 ****
 1  2  3  4  5  16  17  18  19  20  21  22  23  24  25 0
 3-21G
 ****
 27  28  30  31  32  35  37  42  43  44  45  46  47 0
 3-21G
 ****
 48  49 0
 3-21G
 ****


