%nproc=1
%NoSave
%Mem=1900MB
#P OB98/GEN NMR

erre ene a

0 1
  C       89.364     -25.933     -49.616
  O       88.718     -24.903     -50.336
  H       89.051     -25.916     -48.569
  H       89.084     -26.897     -50.050
  H       90.450     -25.817     -49.682
  P       88.969     -23.401     -49.831
  C       88.096     -22.789     -52.204
  O       88.104     -22.476     -50.819
  C       86.783     -22.316     -52.819
  O       85.697     -23.165     -52.384
  C       86.390     -20.900     -52.415
  O       87.045     -19.911     -53.189
  C       84.899     -20.928     -52.702
  O       84.674     -20.811     -54.118
  C       84.516     -22.334     -52.216
  N       81.041     -24.148     -48.924
  C       81.212     -24.337     -50.250
  N       82.175     -23.836     -51.049
  C       83.027     -23.074     -50.347
  C       82.985     -22.794     -48.991
  C       81.928     -23.367     -48.264
  N       81.731     -23.151     -46.919
  N       84.021     -21.953     -48.636
  C       84.685     -21.746     -49.755
  N       84.104     -22.375     -50.823
  O       90.475     -23.096     -50.280
  O       88.729     -23.151     -48.381
  H       84.810     -19.873     -54.352
  H       90.808     -22.296     -49.831
  H       80.476     -24.973     -50.733
  H       85.579     -21.144     -49.846
  H       83.708     -22.779     -52.807
  H       84.361     -20.107     -52.222
  H       86.543     -20.731     -51.343
  H       86.861     -22.407     -53.909
  H       88.191     -23.873     -52.327
  H       80.866     -23.481     -46.521
  H       82.296     -22.457     -46.451
  H       88.941     -22.295     -52.694
  P       87.693     -18.666     -52.407
  C       89.737     -18.506     -54.002
  O       88.578     -17.867     -53.481
  O       88.788     -19.363     -51.473
  O       86.719     -17.847     -51.626
  H       88.896     -18.870     -50.637
  H       90.220     -17.855     -54.701
  H       89.453     -19.412     -54.496
  H       90.410     -18.732     -53.201

 6  7  8  9  10  11  12  13  14  15  25  28  32  33  34  35 0
 6-311+G(2d,p)
 ****
 36  39  40 0
 6-311+G(2d,p)
 ****
 1  2  3  4  5  16  17  18  19  20  21  22  23  24 0
 3-21G
 ****
 26  27  29  30  31  37  38  41  42  43  44  45  46  47 0
 3-21G
 ****
 48 0
 3-21G
 ****


