%nproc=1
%NoSave
%Mem=1900MB
#P OB98/GEN NMR

erre ene a

0 1
  C      -29.362     -21.214      17.368
  O      -28.977     -20.008      16.737
  H      -28.475     -21.839      17.501
  H      -30.082     -21.751      16.745
  H      -29.797     -21.003      18.348
  P      -30.141     -18.936      16.473
  C      -30.160     -19.442      13.934
  O      -30.883     -19.476      15.157
  C      -30.994     -20.038      12.803
  O      -31.225     -21.440      13.029
  C      -32.374     -19.411      12.643
  O      -32.295     -18.193      11.922
  C      -33.086     -20.493      11.847
  O      -32.718     -20.397      10.457
  C      -32.512     -21.788      12.451
  N      -36.814     -24.419      13.406
  C      -36.367     -23.803      12.290
  N      -35.236     -23.087      12.121
  C      -34.529     -23.036      13.261
  C      -34.858     -23.616      14.477
  C      -36.057     -24.345      14.525
  N      -36.504     -24.981      15.663
  N      -33.891     -23.349      15.424
  C      -32.969     -22.666      14.776
  N      -33.325     -22.419      13.474
  O      -29.715     -17.509      16.455
  O      -31.178     -19.321      17.631
  H      -33.157     -19.607      10.091
  H      -31.217     -20.287      17.748
  H      -37.004     -23.899      11.415
  H      -32.024     -22.342      15.196
  H      -32.332     -22.549      11.683
  H      -34.172     -20.398      11.895
  H      -32.873     -19.291      13.610
  H      -30.414     -19.949      11.876
  H      -29.218     -19.992      14.032
  H      -37.449     -25.333      15.659
  H      -36.003     -24.820      16.524
  H      -29.927     -18.394      13.719
  P      -33.278     -16.975      12.267
  C      -34.589     -17.515      10.123
  O      -34.668     -17.285      11.524
  O      -32.722     -15.620      11.999
  O      -33.640     -17.175      13.810
  H      -33.691     -16.310      14.262
  H      -35.568     -17.710       9.738
  H      -33.958     -18.358       9.935
  H      -34.182     -16.650       9.642

 6  7  8  9  10  11  12  13  14  15  25  28  32  33  34  35 0
 6-311+G(2d,p)
 ****
 36  39  40 0
 6-311+G(2d,p)
 ****
 1  2  3  4  5  16  17  18  19  20  21  22  23  24 0
 3-21G
 ****
 26  27  29  30  31  37  38  41  42  43  44  45  46  47 0
 3-21G
 ****
 48 0
 3-21G
 ****


