%nproc=1
%NoSave
%Mem=1900MB
#P OB98/GEN NMR

erre ene a

0 1
  C     -390.035    -384.290     232.377
  O     -391.203    -384.926     231.893
  H     -389.739    -384.736     233.328
  H     -389.229    -384.434     231.653
  H     -390.204    -383.217     232.507
  P     -392.587    -384.597     232.635
  C     -394.036    -384.857     230.499
  O     -393.563    -383.990     231.517
  C     -393.512    -384.420     229.130
  O     -392.047    -384.492     229.143
  C     -394.011    -385.283     227.951
  O     -394.256    -384.429     226.835
  C     -392.819    -386.175     227.637
  O     -392.807    -386.626     226.285
  C     -391.653    -385.232     227.976
  N     -388.000    -387.929     225.702
  C     -388.916    -387.071     225.215
  N     -389.828    -386.361     225.908
  C     -389.680    -386.528     227.230
  C     -388.787    -387.373     227.869
  C     -387.914    -388.110     227.037
  N     -387.010    -389.043     227.523
  N     -388.976    -387.319     229.240
  C     -389.980    -386.489     229.414
  N     -390.443    -385.987     228.226
  O     -392.199    -383.324     233.527
  O     -393.156    -385.703     233.459
  H     -392.098    -387.290     226.185
  H     -391.848    -383.619     234.388
  H     -388.943    -386.959     224.130
  H     -390.438    -386.246     230.362
  H     -391.443    -384.514     227.174
  H     -392.825    -387.047     228.294
  H     -394.915    -385.870     228.179
  H     -393.786    -383.381     228.976
  H     -395.132    -384.840     230.483
  H     -386.524    -389.602     226.840
  H     -387.030    -389.257     228.511
  H     -393.708    -385.891     230.720
  P     -395.678    -383.681     226.782
  C     -395.210    -381.213     226.111
  O     -395.461    -382.136     227.153
  O     -396.451    -384.259     228.071
  O     -396.452    -383.921     225.526
  H     -397.409    -384.305     227.897
  H     -395.089    -380.233     226.524
  H     -396.034    -381.213     225.428
  H     -394.317    -381.494     225.593

 6  7  8  9  10  11  12  13  14  15  25  28  32  33  34  35 0
 6-311+G(2d,p)
 ****
 36  39  40 0
 6-311+G(2d,p)
 ****
 1  2  3  4  5  16  17  18  19  20  21  22  23  24 0
 3-21G
 ****
 26  27  29  30  31  37  38  41  42  43  44  45  46  47 0
 3-21G
 ****
 48 0
 3-21G
 ****


