%nproc=1
%NoSave
%Mem=1900MB
#P OB98/GEN NMR

erre ene a

0 1
  C      -25.325      34.562     -67.073
  O      -26.231      35.215     -67.945
  P      -27.732      34.680     -68.151
  C      -27.481      35.542     -70.577
  O      -28.297      35.480     -69.420
  C      -27.789      36.808     -71.378
  O      -26.925      36.840     -72.544
  C      -29.238      36.907     -71.872
  O      -29.604      38.291     -71.840
  C      -29.141      36.412     -73.302
  O      -30.220      36.860     -74.109
  C      -27.769      36.962     -73.706
  N      -27.197      36.257     -74.847
  C      -27.954      36.195     -76.018
  O      -29.075      36.697     -76.074
  N      -27.421      35.558     -77.111
  C      -26.273      34.962     -77.017
  N      -25.762      34.398     -78.145
  C      -25.491      34.911     -75.768
  C      -25.997      35.591     -74.744
  O      -28.592      34.749     -66.938
  O      -27.549      33.208     -68.742
  H      -30.157      37.830     -74.197
  H      -27.424      32.523     -68.038
  H      -24.552      34.377     -75.732
  H      -25.480      35.630     -73.795
  H      -27.842      38.032     -73.931
  H      -29.146      35.317     -73.311
  H      -29.935      36.334     -71.254
  H      -27.536      37.678     -70.760
  H      -26.242      34.603     -79.014
  H      -27.699      34.669     -71.199
  H      -24.768      34.215     -78.232
  H      -26.426      35.505     -70.287
  P      -30.872      38.721     -70.954
  C      -32.652      38.302     -72.794
  O      -32.019      39.236     -71.947
  O      -30.357      40.095     -70.300
  O      -31.285      37.771     -69.879
  H      -30.836      40.247     -69.464
  H      -33.404      38.825     -73.391
  H      -33.152      37.528     -72.207
  H      -31.926      37.844     -73.471
  H      -24.387      35.077     -67.083
  H      -25.181      33.553     -67.398
  H      -25.722      34.563     -66.080

 3  4  5  6  7  8  9  10  11  12  13  23  27  28  29  30  32 0
 6-311+G(2d,p)
 ****
 34  35 0
 6-311+G(2d,p)
 ****
 1  2  14  15  16  17  18  19  20  21  22  24  25  26 0
 3-21G
 ****
 31  33  36  37  38  39  40  41  42  43  44  45  46 0
 3-21G
 ****


