%nproc=1
%NoSave
%Mem=1900MB
#P OB98/GEN NMR

erre ene a

0 1
  C      -81.890    -177.769    -138.253
  O      -80.725    -176.968    -138.231
  P      -80.656    -175.617    -139.088
  C      -79.781    -174.106    -137.204
  O      -80.860    -174.378    -138.093
  C      -80.301    -173.879    -135.787
  O      -81.103    -174.998    -135.348
  C      -79.208    -173.742    -134.740
  O      -78.538    -172.498    -134.829
  C      -80.003    -173.956    -133.459
  O      -80.683    -172.752    -133.073
  C      -81.020    -175.030    -133.902
  N      -80.674    -176.356    -133.417
  C      -80.891    -176.589    -132.055
  O      -81.274    -175.679    -131.320
  N      -80.659    -177.849    -131.561
  C      -80.137    -178.755    -132.328
  N      -79.986    -179.999    -131.801
  C      -79.743    -178.498    -133.728
  C      -80.058    -177.297    -134.209
  O      -81.521    -175.591    -140.305
  O      -79.110    -175.494    -139.492
  H      -79.048    -175.334    -140.454
  H      -81.207    -172.469    -133.847
  H      -79.250    -179.267    -134.305
  H      -79.827    -177.027    -135.234
  H      -82.023    -174.772    -133.541
  H      -79.368    -174.252    -132.618
  H      -78.481    -174.555    -134.857
  H      -80.937    -172.984    -135.798
  H      -80.284    -180.142    -130.845
  H      -79.258    -173.211    -137.553
  H      -79.904    -180.831    -132.381
  H      -79.078    -174.945    -137.226
  P      -77.009    -172.460    -134.346
  C      -76.003    -171.520    -136.538
  O      -76.090    -172.613    -135.647
  O      -76.828    -173.858    -133.585
  O      -76.666    -171.310    -133.457
  H      -76.236    -173.740    -132.819
  H      -75.106    -171.638    -137.152
  H      -75.939    -170.570    -136.001
  H      -76.878    -171.512    -137.193
  H      -81.748    -178.623    -137.624
  H      -82.082    -178.092    -139.255
  H      -82.722    -177.198    -137.897

 3  4  5  6  7  8  9  10  11  12  13  24  27  28  29  30  32 0
 6-311+G(2d,p)
 ****
 34  35 0
 6-311+G(2d,p)
 ****
 1  2  14  15  16  17  18  19  20  21  22  23  25  26 0
 3-21G
 ****
 31  33  36  37  38  39  40  41  42  43  44  45  46 0
 3-21G
 ****


