%nproc=1
%NoSave
%Mem=1900MB
#P OB98/GEN NMR

erre ene a

0 1
  C     -202.790     -79.219     855.217
  O     -204.151     -79.442     855.532
  H     -202.249     -79.002     856.142
  H     -202.686     -78.365     854.541
  H     -202.356     -80.112     854.759
  P     -205.186     -79.668     854.329
  C     -205.764     -82.128     854.884
  O     -205.143     -81.232     853.974
  C     -205.476     -83.585     854.494
  O     -204.040     -83.754     854.336
  C     -205.942     -84.608     855.543
  O     -206.280     -85.816     854.844
  C     -204.677     -84.794     856.362
  O     -204.757     -85.935     857.184
  C     -203.627     -84.796     855.248
  N     -202.278     -84.581     855.750
  C     -201.812     -85.507     856.683
  O     -202.535     -86.438     857.052
  N     -200.552     -85.345     857.203
  C     -199.848     -84.308     856.868
  N     -198.614     -84.198     857.430
  C     -200.328     -83.274     855.930
  C     -201.535     -83.475     855.408
  O     -205.031     -78.757     853.159
  O     -206.622     -79.496     855.017
  H     -205.570     -85.912     857.734
  H     -207.001     -78.633     854.771
  H     -199.710     -82.420     855.696
  H     -201.976     -82.771     854.709
  H     -203.644     -85.742     854.693
  H     -204.517     -83.939     857.024
  H     -206.798     -84.261     856.130
  H     -205.931     -83.787     853.518
  H     -198.334     -84.924     858.079
  H     -206.842     -81.938     854.846
  H     -197.989     -83.424     857.260
  H     -205.407     -81.942     855.903
  P     -207.788     -86.263     854.553
  C     -207.566     -85.997     851.999
  O     -208.277     -85.617     853.174
  O     -208.722     -86.026     855.700
  O     -207.704     -87.827     854.221
  H     -208.529     -88.261     854.509
  H     -207.988     -85.500     851.151
  H     -207.639     -87.056     851.865
  H     -206.537     -85.720     852.100

 6  7  8  9  10  11  12  13  14  15  16  26  30  31  32  33  35 0
 6-311+G(2d,p)
 ****
 37  38 0
 6-311+G(2d,p)
 ****
 1  2  3  4  5  17  18  19  20  21  22  23  24  25 0
 3-21G
 ****
 27  28  29  34  36  39  40  41  42  43  44  45  46 0
 3-21G
 ****


