%nproc=1
%NoSave
%Mem=1900MB
#P OB98/GEN NMR

erre ene a

0 1
  C       21.032    -544.137    -255.482
  O       20.613    -544.733    -254.251
  P       20.102    -546.253    -254.312
  C       17.825    -547.456    -254.020
  O       18.493    -546.248    -254.352
  C       16.390    -547.186    -253.539
  O       16.391    -546.283    -252.396
  C       15.492    -546.551    -254.604
  O       14.161    -547.043    -254.396
  C       15.527    -545.077    -254.254
  O       14.426    -544.374    -254.827
  C       15.540    -545.157    -252.727
  N       14.300    -541.240    -249.690
  C       13.593    -542.313    -250.123
  N       13.991    -543.303    -250.951
  C       15.285    -543.129    -251.306
  C       16.120    -542.087    -250.951
  C       15.582    -541.105    -250.107
  N       16.289    -539.999    -249.683
  N       17.360    -542.239    -251.552
  C       17.262    -543.346    -252.257
  N       16.035    -543.942    -252.113
  O       20.437    -546.813    -252.847
  O       20.763    -547.071    -255.373
  H       14.587    -544.284    -255.790
  H       21.192    -547.433    -252.894
  H       12.567    -542.381    -249.761
  H       18.036    -543.759    -252.886
  H       14.544    -545.346    -252.306
  H       16.455    -544.630    -254.628
  H       15.803    -546.747    -255.636
  H       15.954    -548.135    -253.203
  H       18.367    -547.984    -253.235
  H       15.816    -539.324    -249.098
  H       17.232    -539.861    -250.025
  H       17.831    -548.124    -254.890
  P       13.422    -547.680    -255.668
  C       12.598    -546.639    -257.895
  O       12.842    -546.447    -256.520
  O       12.112    -548.364    -255.049
  O       14.258    -548.657    -256.435
  H       11.813    -549.093    -255.614
  H       11.659    -546.127    -258.159
  H       12.508    -547.693    -258.163
  H       13.406    -546.188    -258.470
  H       21.346    -543.130    -255.302
  H       20.216    -544.138    -256.174
  H       21.847    -544.697    -255.890

 3  4  5  6  7  8  9  10  11  12  22  25  29  30  31  32 0
 6-311+G(2d,p)
 ****
 33  36  37 0
 6-311+G(2d,p)
 ****
 1  2  13  14  15  16  17  18  19  20  21  23  24  26 0
 3-21G
 ****
 27  28  34  35  38  39  40  41  42  43  44  45  46  47  48 0
 3-21G
 ****


