%nproc=1
%NoSave
%Mem=1900MB
#P OB98/GEN NMR

erre ene a

0 1
  C      432.461    -306.490    -170.472
  O      433.180    -305.623    -171.328
  H      432.653    -306.232    -169.426
  H      431.392    -306.376    -170.672
  H      432.747    -307.529    -170.660
  P      434.777    -305.662    -171.210
  C      435.112    -307.786    -172.663
  O      435.201    -307.202    -171.372
  C      435.841    -309.128    -172.685
  O      437.227    -308.945    -172.339
  C      435.302    -310.158    -171.701
  O      434.135    -310.799    -172.188
  C      436.476    -311.122    -171.627
  O      436.469    -311.985    -172.781
  C      437.677    -310.166    -171.690
  N      441.101    -311.470    -168.117
  C      440.854    -311.959    -169.351
  N      439.939    -311.547    -170.254
  C      439.245    -310.499    -169.777
  C      439.396    -309.874    -168.550
  C      440.374    -310.407    -167.690
  N      440.566    -309.937    -166.400
  N      438.493    -308.841    -168.409
  C      437.794    -308.856    -169.529
  N      438.217    -309.833    -170.387
  O      435.027    -305.358    -169.655
  O      435.503    -304.697    -172.087
  H      437.272    -312.534    -172.723
  H      435.226    -304.410    -169.544
  H      441.470    -312.799    -169.653
  H      436.977    -308.182    -169.757
  H      438.497    -310.567    -172.298
  H      436.456    -311.765    -170.744
  H      435.136    -309.722    -170.707
  H      435.798    -309.515    -173.711
  H      435.570    -307.113    -173.400
  H      440.917    -310.644    -165.761
  H      439.830    -309.337    -166.059
  H      434.056    -307.924    -172.913
  P      433.116    -311.423    -171.116
  C      431.073    -309.905    -171.575
  O      432.128    -310.234    -170.683
  O      434.049    -311.634    -169.829
  O      432.463    -312.697    -171.524
  H      434.012    -312.569    -169.549
  H      430.497    -309.102    -171.165
  H      430.445    -310.760    -171.715
  H      431.483    -309.605    -172.517

 6  7  8  9  10  11  12  13  14  15  25  28  32  33  34  35 0
 6-311+G(2d,p)
 ****
 36  39  40 0
 6-311+G(2d,p)
 ****
 1  2  3  4  5  16  17  18  19  20  21  22  23  24 0
 3-21G
 ****
 26  27  29  30  31  37  38  41  42  43  44  45  46  47  48 0
 3-21G
 ****


