%nproc=1
%NoSave
%Mem=1900MB
#P OB98/GEN NMR

erre ene a

0 1
  C      801.922    -484.875     191.211
  O      800.532    -485.173     191.419
  P      799.754    -484.479     192.638
  C      797.825    -483.237     191.382
  O      798.210    -484.302     192.232
  C      796.790    -483.714     190.360
  O      797.394    -484.664     189.448
  C      795.605    -484.450     190.957
  O      794.669    -483.554     191.549
  C      795.050    -485.179     189.749
  O      794.214    -484.326     188.960
  C      796.347    -485.533     188.986
  N      796.710    -486.945     189.111
  C      795.801    -487.877     188.638
  O      794.693    -487.569     188.184
  N      796.178    -489.193     188.739
  C      797.322    -489.660     189.322
  O      797.601    -490.846     189.405
  C      798.214    -488.628     189.874
  C      797.872    -487.344     189.760
  O      800.290    -482.973     192.566
  O      800.015    -485.068     193.992
  H      793.887    -484.863     188.206
  H      800.270    -482.569     193.457
  H      795.543    -489.881     188.380
  H      799.124    -488.942     190.368
  H      798.518    -486.562     190.161
  H      796.226    -485.313     187.907
  H      794.444    -486.047     190.017
  H      795.952    -485.186     191.693
  H      796.457    -482.837     189.773
  H      798.709    -482.854     190.857
  H      797.405    -482.421     191.995
  P      794.074    -483.970     192.990
  C      793.244    -481.488     192.888
  O      793.035    -482.809     193.350
  O      795.338    -483.715     193.930
  O      793.546    -485.370     193.020
  H      795.880    -482.959     193.622
  H      793.708    -481.483     191.902
  H      793.864    -480.949     193.603
  H      792.261    -480.991     192.823
  H      802.280    -485.419     190.362
  H      802.481    -485.158     192.078
  H      802.040    -483.826     191.038

 3  4  5  6  7  8  9  10  11  12  13  23  28  29  30  31  32 0
 6-311+G(2d,p)
 ****
 33  34 0
 6-311+G(2d,p)
 ****
 1  2  14  15  16  17  18  19  20  21  22  24  25  26 0
 3-21G
 ****
 27  35  36  37  38  39  40  41  42  43  44  45 0
 3-21G
 ****


