%nproc=1
%NoSave
%Mem=1900MB
#P OB98/GEN NMR

erre ene a

0 1
  C      337.065      15.821    -262.805
  O      338.123      15.322    -261.979
  P      339.422      16.246    -261.801
  C      339.266      16.316    -259.201
  O      340.042      15.980    -260.348
  C      339.531      15.319    -258.074
  O      338.932      14.039    -258.356
  C      341.010      15.031    -257.868
  O      341.627      16.085    -257.159
  C      340.970      13.713    -257.102
  O      340.926      13.924    -255.679
  C      339.667      13.055    -257.601
  N      339.903      11.858    -258.394
  C      340.188      10.696    -257.668
  O      340.250      10.730    -256.438
  N      340.424       9.535    -258.359
  C      340.404       9.540    -259.658
  N      340.649       8.362    -260.286
  C      340.134      10.753    -260.457
  C      339.893      11.866    -259.767
  O      338.810      17.720    -261.681
  O      340.394      16.146    -262.933
  H      341.122      13.050    -255.279
  H      339.420      18.371    -262.069
  H      340.134      10.710    -261.537
  H      339.688      12.805    -260.271
  H      339.027      12.777    -256.752
  H      341.862      13.110    -257.302
  H      341.501      14.882    -258.837
  H      339.096      15.719    -257.147
  H      340.834       7.551    -259.707
  H      338.203      16.319    -259.454
  H      340.663       8.253    -261.289
  H      339.516      17.337    -258.894
  P      343.228      16.080    -257.057
  C      343.309      18.509    -257.884
  O      343.635      17.615    -256.839
  O      343.654      15.839    -258.584
  O      343.852      15.086    -256.137
  H      344.622      15.720    -258.644
  H      343.446      19.531    -257.527
  H      342.266      18.382    -258.189
  H      343.970      18.341    -258.736
  H      336.268      15.107    -262.834
  H      337.433      15.985    -263.796
  H      336.703      16.744    -262.402

 3  4  5  6  7  8  9  10  11  12  13  21  23  27  28  29  30  32 0
 6-311+G(2d,p)
 ****
 34  35 0
 6-311+G(2d,p)
 ****
 1  2  14  15  16  17  18  19  20  22  24  25  26 0
 3-21G
 ****
 31  33  36  37  38  39  40  41  42  43  44  45  46 0
 3-21G
 ****


