%nproc=1
%NoSave
%Mem=1900MB
#P OB98/GEN NMR

erre ene a

0 1
  C     -148.930      50.156     -50.988
  O     -148.411      48.839     -50.789
  P     -147.357      48.542     -49.616
  C     -148.599      48.575     -47.377
  O     -148.103      47.753     -48.430
  C     -149.443      47.808     -46.352
  O     -150.603      47.204     -46.981
  C     -148.701      46.689     -45.613
  O     -149.264      46.649     -44.298
  C     -149.093      45.460     -46.409
  O     -148.885      44.251     -45.691
  C     -150.555      45.786     -46.748
  N     -151.039      45.028     -47.898
  C     -151.956      44.008     -47.644
  O     -152.280      43.738     -46.486
  N     -152.449      43.281     -48.700
  C     -151.989      43.494     -49.894
  N     -152.496      42.727     -50.897
  C     -150.956      44.503     -50.197
  C     -150.540      45.234     -49.164
  O     -146.566      49.729     -49.171
  O     -146.389      47.427     -50.244
  H     -147.932      44.185     -45.468
  H     -145.498      47.520     -49.856
  H     -150.583      44.626     -51.203
  H     -149.787      46.003     -49.283
  H     -151.207      45.567     -45.892
  H     -148.496      45.408     -47.328
  H     -147.620      46.840     -45.570
  H     -149.824      48.540     -45.630
  H     -153.184      42.028     -50.644
  H     -149.208      49.372     -47.818
  H     -152.129      42.730     -51.836
  H     -147.754      49.057     -46.875
  P     -148.357      46.498     -42.988
  C     -148.320      48.899     -42.105
  O     -148.864      47.601     -41.945
  O     -146.884      46.508     -43.240
  O     -148.823      45.116     -42.320
  H     -148.140      44.818     -41.690
  H     -148.888      49.600     -41.489
  H     -148.376      49.218     -43.149
  H     -147.275      48.905     -41.779
  H     -149.613      50.150     -51.812
  H     -148.125      50.829     -51.197
  H     -149.441      50.475     -50.104

 3  4  5  6  7  8  9  10  11  12  13  23  27  28  29  30  32 0
 6-311+G(2d,p)
 ****
 34  35 0
 6-311+G(2d,p)
 ****
 1  2  14  15  16  17  18  19  20  21  22  24  25  26 0
 3-21G
 ****
 31  33  36  37  38  39  40  41  42  43  44  45  46 0
 3-21G
 ****


