%nproc=1
%NoSave
%Mem=1900MB
#P OB98/GEN NMR

erre ene a

0 1
  C      191.086    -552.052     204.661
  O      191.664    -551.864     205.935
  H      191.879    -552.026     203.911
  H      190.377    -551.246     204.452
  H      190.580    -553.020     204.605
  P      190.697    -552.070     207.203
  C      191.676    -554.468     207.427
  O      190.508    -553.657     207.378
  C      191.523    -555.547     208.493
  O      191.623    -554.968     209.816
  C      190.191    -556.284     208.450
  O      190.194    -557.327     207.485
  C      190.142    -556.850     209.866
  O      191.007    -557.998     209.964
  C      190.708    -555.686     210.689
  N      187.496    -554.674     214.476
  C      188.372    -555.731     214.319
  N      188.382    -556.658     215.299
  N      189.157    -555.871     213.282
  C      189.027    -554.879     212.375
  C      188.198    -553.782     212.425
  C      187.336    -553.627     213.577
  O      186.564    -552.702     213.782
  N      188.356    -552.979     211.319
  C      189.259    -553.604     210.593
  N      189.692    -554.760     211.184
  O      189.266    -551.589     206.661
  O      191.085    -551.328     208.435
  H      190.878    -558.517     209.147
  H      188.785    -551.148     207.388
  H      186.901    -554.624     215.292
  H      189.629    -553.254     209.638
  H      191.281    -556.030     211.555
  H      189.143    -557.179     210.152
  H      187.772    -556.635     216.099
  H      189.355    -555.594     208.309
  H      189.043    -557.428     215.220
  H      192.361    -556.251     208.386
  H      192.540    -553.835     207.668
  H      191.836    -554.925     206.447
  P      188.822    -558.139     207.268
  C      187.341    -556.505     205.893
  O      187.672    -557.021     207.176
  O      188.571    -558.808     208.695
  O      188.854    -559.142     206.165
  H      187.998    -559.599     208.595
  H      186.565    -555.775     205.991
  H      187.003    -557.302     205.264
  H      188.206    -556.049     205.458

 6  7  8  9  10  11  12  13  14  15  26  29  33  34 0
 6-311+G(2d,p)
 ****
 36  38  39  40  41 0
 6-311+G(2d,p)
 ****
 1  2  3  4  5  16  17  18  19  20  21  22  23  24  25 0
 3-21G
 ****
 27  28  30  31  32  35  37  42  43  44  45  46  47 0
 3-21G
 ****
 48  49 0
 3-21G
 ****


