%nproc=1
%NoSave
%Mem=1900MB
#P OB98/GEN NMR

erre ene a

0 1
  C      280.808    -602.266     986.550
  O      279.999    -601.159     986.166
  P      278.510    -601.044     986.777
  C      277.080    -601.425     984.628
  O      277.542    -601.940     985.872
  C      275.794    -602.156     984.187
  O      276.084    -603.419     983.578
  C      274.843    -602.436     985.328
  O      274.039    -601.328     985.641
  C      273.985    -603.532     984.714
  O      272.998    -602.955     983.851
  C      275.014    -604.332     983.888
  N      274.148    -609.143     985.209
  C      273.387    -608.267     984.469
  N      272.202    -608.746     984.000
  N      273.716    -607.046     984.202
  C      274.940    -606.704     984.722
  C      275.768    -607.471     985.484
  C      275.375    -608.819     985.781
  O      276.004    -609.653     986.461
  N      276.914    -606.766     985.838
  C      276.754    -605.582     985.291
  N      275.540    -605.479     984.613
  O      278.095    -599.554     986.394
  O      278.454    -601.265     988.248
  H      272.433    -602.363     984.379
  H      277.442    -599.209     987.027
  H      273.838    -610.085     985.407
  H      277.458    -604.761     985.327
  H      274.592    -604.685     982.951
  H      273.461    -604.118     985.463
  H      271.908    -609.715     984.103
  H      275.383    -602.832     986.211
  H      271.634    -608.145     983.407
  H      275.282    -601.500     983.442
  H      277.853    -601.527     983.860
  H      276.922    -600.343     984.724
  P      274.447    -600.419     986.927
  C      272.462    -601.332     988.355
  O      273.860    -601.211     988.198
  O      273.488    -599.149     986.781
  O      275.889    -600.046     986.988
  H      273.948    -598.353     987.163
  H      272.252    -602.009     989.176
  H      271.994    -601.702     987.449
  H      272.026    -600.333     988.602
  H      281.759    -602.199     986.064
  H      280.325    -603.177     986.264
  H      280.949    -602.254     987.611

 3  4  5  6  7  8  9  10  11  12  23  26  30  31 0
 6-311+G(2d,p)
 ****
 33  35  36  37  38 0
 6-311+G(2d,p)
 ****
 1  2  13  14  15  16  17  18  19  20  21  22  24  25 0
 3-21G
 ****
 27  28  29  32  34  39  40  41  42  43  44  45  46  47  48  49 0
 3-21G
 ****


