%nproc=1
%NoSave
%Mem=1900MB
#P OB98/GEN NMR

erre ene a

0 1
  C     -153.133    -388.706     629.516
  O     -153.792    -387.592     630.069
  P     -152.976    -386.499     630.921
  C     -154.367    -386.547     633.081
  O     -153.140    -386.914     632.462
  C     -154.400    -387.056     634.529
  O     -154.209    -388.494     634.574
  C     -153.287    -386.495     635.401
  O     -153.321    -385.113     635.683
  C     -153.341    -387.447     636.589
  O     -154.386    -387.086     637.497
  C     -153.676    -388.792     635.891
  N     -152.505    -389.672     635.819
  C     -152.480    -390.715     636.740
  O     -153.355    -390.911     637.579
  N     -151.370    -391.515     636.695
  C     -150.291    -391.358     635.860
  O     -149.315    -392.088     635.899
  C     -150.380    -390.225     634.913
  C     -151.466    -389.449     634.940
  O     -153.316    -385.077     630.617
  O     -151.446    -386.877     630.625
  H     -154.438    -387.788     638.176
  H     -151.194    -387.780     630.895
  H     -151.313    -392.264     637.358
  H     -149.555    -390.082     634.234
  H     -151.553    -388.603     634.251
  H     -154.473    -389.316     636.442
  H     -152.406    -387.447     637.157
  H     -152.331    -386.676     634.896
  H     -155.388    -386.847     634.946
  H     -155.199    -386.997     632.526
  H     -154.490    -385.456     633.043
  P     -152.085    -384.324     636.339
  C     -153.261    -383.717     638.582
  O     -152.211    -384.429     637.937
  O     -151.763    -382.983     635.762
  O     -150.863    -385.329     636.049
  H     -150.045    -384.804     635.932
  H     -153.169    -383.867     639.652
  H     -154.229    -384.109     638.253
  H     -153.187    -382.653     638.362
  H     -153.839    -389.313     628.989
  H     -152.684    -389.280     630.299
  H     -152.375    -388.372     628.839

 3  4  5  6  7  8  9  10  11  12  13  23  28  29  30  31  32 0
 6-311+G(2d,p)
 ****
 33  34 0
 6-311+G(2d,p)
 ****
 1  2  14  15  16  17  18  19  20  21  22  24  25  26  27 0
 3-21G
 ****
 35  36  37  38  39  40  41  42  43  44  45 0
 3-21G
 ****


