%nproc=1
%NoSave
%Mem=1900MB
#P OB98/GEN NMR

erre ene a

0 1
  C       58.767      -7.397    -162.179
  O       57.999      -6.328    -161.667
  H       58.901      -8.141    -161.390
  H       59.751      -7.047    -162.500
  H       58.248      -7.869    -163.018
  P       57.757      -5.048    -162.598
  C       55.177      -4.898    -162.630
  O       56.351      -5.273    -163.333
  C       53.927      -5.468    -163.312
  O       53.704      -4.752    -164.560
  C       54.036      -6.962    -163.657
  O       52.713      -7.511    -163.604
  C       54.535      -6.903    -165.087
  O       54.403      -8.145    -165.732
  C       53.705      -5.732    -165.621
  N       54.233      -5.192    -166.864
  C       53.320      -4.528    -167.686
  O       52.139      -4.434    -167.354
  N       53.760      -4.015    -168.879
  C       54.987      -4.206    -169.249
  N       55.356      -3.684    -170.449
  C       55.969      -4.954    -168.436
  C       55.530      -5.411    -167.265
  O       58.885      -4.681    -163.503
  O       57.438      -3.871    -161.559
  H       53.490      -8.499    -165.628
  H       58.211      -3.282    -161.481
  H       56.975      -5.103    -168.798
  H       56.177      -5.972    -166.598
  H       52.663      -6.036    -165.788
  H       55.600      -6.651    -165.112
  H       54.699      -7.509    -162.982
  H       53.057      -5.272    -162.674
  H       54.648      -3.189    -170.977
  H       55.132      -3.804    -162.624
  H       56.276      -3.788    -170.849
  H       55.225      -5.253    -161.596
  P       52.153      -8.312    -162.334
  C       50.350      -6.516    -161.912
  O       51.405      -7.292    -161.351
  O       53.174      -9.170    -161.658
  O       50.960      -9.217    -162.907
  H       50.900     -10.036    -162.381
  H       49.936      -5.880    -161.158
  H       49.589      -7.167    -162.287
  H       50.734      -5.918    -162.712

 6  7  8  9  10  11  12  13  14  15  16  26  30  31  32  33  35 0
 6-311+G(2d,p)
 ****
 37  38 0
 6-311+G(2d,p)
 ****
 1  2  3  4  5  17  18  19  20  21  22  23  24  25 0
 3-21G
 ****
 27  28  29  34  36  39  40  41  42  43  44  45  46 0
 3-21G
 ****


