%nproc=1
%NoSave
%Mem=1900MB
#P OB98/GEN NMR

erre ene a

0 1
  C        1.609       0.409     -19.493
  O        2.200      -0.870     -19.624
  P        3.468      -1.263     -18.731
  C        3.835      -1.547     -16.170
  O        3.078      -0.961     -17.206
  C        4.108      -0.541     -15.045
  O        5.069       0.425     -15.538
  C        2.895       0.268     -14.600
  O        3.171       0.833     -13.317
  C        2.855       1.365     -15.640
  O        2.105       2.496     -15.204
  C        4.359       1.630     -15.907
  N        4.608       1.957     -17.323
  C        3.903       3.034     -17.852
  O        3.162       3.746     -17.177
  N        4.013       3.213     -19.204
  C        4.707       2.403     -20.053
  O        4.549       2.389     -21.267
  C        5.614       1.439     -19.410
  C        5.506       1.244     -18.093
  O        4.523      -0.116     -19.090
  O        4.019      -2.624     -18.985
  H        2.136       3.157     -15.935
  H        5.139      -0.428     -19.779
  H        3.390       3.902     -19.608
  H        6.293       0.879     -20.039
  H        6.125       0.501     -17.599
  H        4.733       2.460     -15.297
  H        2.375       0.981     -16.549
  H        1.961      -0.301     -14.571
  H        4.559      -1.062     -14.193
  H        4.773      -1.931     -16.581
  H        3.303      -2.410     -15.754
  P        1.933       1.112     -12.338
  C        0.117      -0.343     -11.253
  O        1.101      -0.257     -12.263
  O        1.131       2.336     -12.629
  O        2.624       1.183     -10.893
  H        2.031       1.635     -10.266
  H       -0.680      -1.009     -11.593
  H       -0.312       0.637     -11.027
  H        0.566      -0.760     -10.348
  H        0.780       0.489     -20.165
  H        2.332       1.162     -19.727
  H        1.268       0.543     -18.488

 3  4  5  6  7  8  9  10  11  12  13  23  28  29  30  31  32 0
 6-311+G(2d,p)
 ****
 33  34 0
 6-311+G(2d,p)
 ****
 1  2  14  15  16  17  18  19  20  21  22  24  25  26  27 0
 3-21G
 ****
 35  36  37  38  39  40  41  42  43  44  45 0
 3-21G
 ****


