%nproc=1
%NoSave
%Mem=1900MB
#P OB98/GEN NMR

erre ene a

0 1
  C       32.899     -56.175    -372.691
  O       34.234     -56.614    -372.861
  H       32.823     -55.143    -373.040
  H       32.616     -56.210    -371.637
  H       32.216     -56.795    -373.280
  P       34.603     -58.107    -372.415
  C       34.471     -59.437    -370.205
  O       34.358     -58.166    -370.830
  C       33.785     -59.414    -368.844
  O       32.387     -59.088    -368.990
  C       33.844     -60.746    -368.097
  O       35.100     -60.897    -367.454
  C       32.690     -60.570    -367.126
  O       33.091     -59.701    -366.047
  C       31.645     -59.867    -368.012
  N       27.899     -63.254    -367.543
  C       28.612     -62.579    -366.570
  N       28.313     -62.884    -365.288
  N       29.550     -61.703    -366.830
  C       29.788     -61.553    -368.153
  C       29.158     -62.179    -369.211
  C       28.086     -63.100    -368.910
  O       27.418     -63.707    -369.745
  N       29.718     -61.819    -370.409
  C       30.660     -60.951    -370.082
  N       30.752     -60.767    -368.722
  O       35.951     -58.612    -372.836
  O       33.414     -58.996    -373.008
  H       33.419     -58.878    -366.458
  H       33.636     -59.341    -373.892
  H       27.203     -63.928    -367.277
  H       31.295     -60.430    -370.786
  H       31.016     -59.171    -367.442
  H       32.354     -61.504    -366.679
  H       27.821     -63.734    -365.044
  H       33.618     -61.593    -368.757
  H       28.858     -62.438    -364.561
  H       34.242     -58.612    -368.252
  H       35.537     -59.658    -370.095
  H       34.017     -60.215    -370.834
  P       35.517     -62.292    -366.771
  C       34.279     -63.947    -365.221
  O       34.315     -62.636    -365.768
  O       36.869     -62.302    -366.148
  O       35.328     -63.377    -367.925
  H       36.134     -63.500    -368.489
  H       33.432     -64.040    -364.574
  H       35.175     -64.126    -364.664
  H       34.203     -64.662    -366.013

 6  7  8  9  10  11  12  13  14  15  26  29  33  34 0
 6-311+G(2d,p)
 ****
 36  38  39  40  41 0
 6-311+G(2d,p)
 ****
 1  2  3  4  5  16  17  18  19  20  21  22  23  24  25 0
 3-21G
 ****
 27  28  30  31  32  35  37  42  43  44  45  46  47 0
 3-21G
 ****
 48  49 0
 3-21G
 ****


