%nproc=1
%NoSave
%Mem=1900MB
#P OB98/GEN NMR

erre ene a

0 1
  C      -48.820    -713.085    -360.607
  O      -48.658    -713.808    -359.386
  P      -48.602    -715.410    -359.446
  C      -46.100    -715.756    -360.235
  O      -47.485    -715.869    -360.487
  C      -45.444    -717.138    -360.344
  O      -45.747    -717.734    -361.628
  C      -43.920    -717.100    -360.212
  O      -43.499    -717.168    -358.865
  C      -43.512    -718.313    -361.028
  O      -43.714    -719.525    -360.268
  C      -44.508    -718.246    -362.211
  N      -44.161    -717.399    -363.371
  C      -43.995    -717.984    -364.629
  O      -44.112    -719.186    -364.858
  N      -43.688    -717.125    -365.657
  C      -43.696    -715.753    -365.603
  O      -43.469    -715.049    -366.567
  C      -44.017    -715.195    -364.291
  C      -44.217    -716.011    -363.253
  O      -49.971    -715.817    -360.156
  O      -48.451    -716.079    -358.105
  H      -43.494    -720.275    -360.858
  H      -50.543    -716.320    -359.541
  H      -43.491    -717.543    -366.556
  H      -44.075    -714.112    -364.214
  H      -44.461    -715.600    -362.283
  H      -44.719    -719.247    -362.602
  H      -42.446    -718.287    -361.271
  H      -43.521    -716.213    -360.710
  H      -45.874    -717.788    -359.559
  H      -45.911    -715.334    -359.238
  H      -45.650    -715.064    -360.956
  P      -43.255    -715.807    -358.053
  C      -45.603    -715.820    -357.003
  O      -44.709    -715.143    -357.867
  O      -42.191    -714.903    -358.583
  O      -42.920    -716.324    -356.566
  H      -41.943    -716.364    -356.417
  H      -46.481    -715.186    -356.828
  H      -45.118    -716.020    -356.029
  H      -45.923    -716.761    -357.455
  H      -48.838    -712.035    -360.400
  H      -49.739    -713.373    -361.073
  H      -48.004    -713.305    -361.263

 3  4  5  6  7  8  9  10  11  12  13  23  28  29  30  31  32 0
 6-311+G(2d,p)
 ****
 33  34 0
 6-311+G(2d,p)
 ****
 1  2  14  15  16  17  18  19  20  21  22  24  25  26  27 0
 3-21G
 ****
 35  36  37  38  39  40  41  42  43  44  45 0
 3-21G
 ****


