%nproc=1
%NoSave
%Mem=1900MB
#P OB98/GEN NMR

erre ene a

0 1
  C     -347.108     311.481    -213.298
  O     -347.202     310.943    -211.993
  P     -346.608     309.495    -211.658
  C     -346.896     307.072    -212.629
  O     -347.197     308.448    -212.706
  C     -348.169     306.298    -212.249
  O     -349.181     306.479    -213.268
  C     -347.900     304.806    -212.106
  O     -347.634     304.473    -210.754
  C     -349.173     304.185    -212.644
  O     -350.196     304.184    -211.632
  C     -349.540     305.167    -213.781
  N     -348.882     304.998    -215.099
  C     -349.229     303.927    -215.907
  O     -350.098     303.108    -215.623
  N     -348.518     303.808    -217.079
  C     -347.555     304.677    -217.510
  O     -346.765     304.436    -218.425
  C     -347.423     305.915    -216.746
  C     -348.060     306.009    -215.577
  O     -347.344     309.105    -210.289
  O     -345.119     309.430    -211.530
  H     -351.025     303.915    -212.063
  H     -346.768     309.282    -209.526
  H     -348.668     302.959    -217.610
  H     -346.766     306.692    -217.133
  H     -347.952     306.911    -214.977
  H     -350.622     305.167    -213.966
  H     -349.019     303.146    -212.923
  H     -347.057     304.511    -212.753
  H     -348.557     306.711    -211.305
  H     -346.107     306.901    -211.892
  H     -346.512     306.716    -213.597
  P     -346.697     303.219    -210.414
  C     -346.914     300.680    -210.685
  O     -347.539     301.928    -210.878
  O     -346.163     303.172    -209.016
  O     -345.524     303.333    -211.497
  H     -344.739     303.765    -211.101
  H     -347.645     299.887    -210.866
  H     -346.542     300.588    -209.654
  H     -346.088     300.567    -211.392
  H     -347.560     312.451    -213.318
  H     -347.614     310.837    -213.987
  H     -346.078     311.562    -213.577

 3  4  5  6  7  8  9  10  11  12  13  23  28  29  30  31  32 0
 6-311+G(2d,p)
 ****
 33  34 0
 6-311+G(2d,p)
 ****
 1  2  14  15  16  17  18  19  20  21  22  24  25  26  27 0
 3-21G
 ****
 35  36  37  38  39  40  41  42  43  44  45 0
 3-21G
 ****


