%nproc=1
%NoSave
%Mem=1900MB
#P OB98/GEN NMR

erre ene a

0 1
  C      -27.398      86.050      -6.825
  O      -28.148      84.866      -7.012
  H      -26.529      86.052      -7.488
  H      -28.029      86.909      -7.068
  H      -27.074      86.133      -5.785
  P      -27.380      83.486      -6.721
  C      -25.784      81.943      -8.050
  O      -26.451      83.195      -8.001
  C      -25.137      81.749      -9.421
  O      -26.196      81.547     -10.394
  C      -24.280      82.936      -9.886
  O      -22.990      82.487     -10.326
  C      -25.031      83.491     -11.083
  O      -24.170      84.007     -12.091
  C      -25.824      82.283     -11.568
  N      -27.644      83.034     -16.271
  C      -26.600      82.308     -15.826
  N      -26.224      82.070     -14.553
  C      -27.081      82.646     -13.688
  C      -28.204      83.400     -13.994
  C      -28.468      83.608     -15.358
  N      -29.501      84.393     -15.814
  N      -28.831      83.834     -12.841
  C      -28.071      83.390     -11.859
  N      -26.996      82.679     -12.321
  O      -28.543      82.388      -6.841
  O      -26.700      83.422      -5.395
  H      -24.725      84.249     -12.853
  H      -28.633      81.931      -5.983
  H      -25.974      81.860     -16.596
  H      -28.229      83.590     -10.807
  H      -25.217      81.623     -12.198
  H      -25.697      84.296     -10.748
  H      -24.155      83.693      -9.109
  H      -24.540      80.828      -9.401
  H      -26.505      81.135      -7.879
  H      -29.550      84.584     -16.803
  H      -30.049      84.910     -15.137
  H      -25.024      81.910      -7.263
  P      -21.741      82.914      -9.407
  C      -19.767      84.598      -9.565
  O      -20.989      84.139     -10.129
  O      -20.730      81.684      -9.572
  O      -22.095      83.139      -7.975
  H      -20.510      81.315      -8.697
  H      -19.387      85.410     -10.149
  H      -19.055      83.799      -9.559
  H      -19.939      84.930      -8.562

 6  7  8  9  10  11  12  13  14  15  25  28  32  33  34  35 0
 6-311+G(2d,p)
 ****
 36  39  40 0
 6-311+G(2d,p)
 ****
 1  2  3  4  5  16  17  18  19  20  21  22  23  24 0
 3-21G
 ****
 26  27  29  30  31  37  38  41  42  43  44  45  46  47  48 0
 3-21G
 ****


