%nproc=1
%NoSave
%Mem=1900MB
#P OB98/GEN NMR

erre ene a

0 1
  C     -190.015    -780.764    -340.433
  O     -189.757    -779.396    -340.167
  H     -190.747    -781.129    -339.709
  H     -189.099    -781.342    -340.331
  H     -190.422    -780.883    -341.447
  P     -188.769    -778.633    -341.174
  C     -188.481    -776.120    -341.761
  O     -188.809    -777.078    -340.765
  C     -188.548    -774.706    -341.188
  O     -189.942    -774.311    -341.032
  C     -187.860    -774.538    -339.817
  O     -187.264    -773.237    -339.760
  C     -189.033    -774.570    -338.847
  O     -188.725    -773.957    -337.593
  C     -190.079    -773.820    -339.675
  N     -193.568    -771.944    -336.556
  C     -192.306    -771.470    -336.892
  N     -191.911    -770.319    -336.297
  N     -191.503    -772.075    -337.717
  C     -192.040    -773.199    -338.272
  C     -193.270    -773.780    -338.029
  C     -194.132    -773.108    -337.066
  O     -195.253    -773.489    -336.721
  N     -193.422    -774.929    -338.754
  C     -192.303    -775.052    -339.428
  N     -191.428    -774.029    -339.170
  O     -189.574    -778.681    -342.558
  O     -187.402    -779.224    -341.307
  H     -189.536    -773.992    -337.037
  H     -189.300    -779.452    -343.084
  H     -194.137    -771.447    -335.899
  H     -192.061    -775.855    -340.123
  H     -189.907    -772.737    -339.688
  H     -189.350    -775.601    -338.661
  H     -192.493    -769.774    -335.674
  H     -187.105    -775.305    -339.595
  H     -191.003    -769.939    -336.556
  H     -188.098    -774.011    -341.919
  H     -189.203    -776.202    -342.579
  H     -187.470    -776.325    -342.153
  P     -185.832    -773.032    -340.458
  C     -184.232    -771.027    -340.925
  O     -185.525    -771.452    -340.506
  O     -186.124    -773.392    -341.994
  O     -184.740    -773.886    -339.885
  H     -185.305    -773.722    -342.429
  H     -184.184    -769.958    -340.904
  H     -184.048    -771.373    -341.921
  H     -183.493    -771.431    -340.265

 6  7  8  9  10  11  12  13  14  15  26  29  33  34 0
 6-311+G(2d,p)
 ****
 36  38  39  40  41 0
 6-311+G(2d,p)
 ****
 1  2  3  4  5  16  17  18  19  20  21  22  23  24  25 0
 3-21G
 ****
 27  28  30  31  32  35  37  42  43  44  45  46  47 0
 3-21G
 ****
 48  49 0
 3-21G
 ****


