%nproc=1
%NoSave
%Mem=1900MB
#P OB98/GEN NMR

erre ene a

0 1
  C     2636.228    1188.445    -894.308
  O     2634.891    1188.038    -894.594
  P     2634.608    1186.448    -894.638
  C     2632.082    1186.134    -894.015
  O     2633.442    1186.201    -893.570
  C     2631.396    1187.462    -893.725
  O     2631.978    1188.512    -894.561
  C     2629.929    1187.457    -894.042
  O     2629.162    1186.772    -893.073
  C     2629.619    1188.973    -894.131
  O     2629.446    1189.498    -892.817
  C     2630.921    1189.518    -894.770
  N     2630.766    1189.828    -896.158
  C     2629.870    1190.837    -896.484
  O     2629.191    1191.450    -895.623
  N     2629.697    1191.140    -897.794
  C     2630.330    1190.499    -898.850
  O     2630.173    1190.864    -900.000
  C     2631.228    1189.433    -898.463
  C     2631.394    1189.112    -897.212
  O     2635.938    1185.868    -893.916
  O     2634.364    1185.936    -896.016
  H     2636.256    1186.444    -893.210
  H     2629.254    1190.463    -892.942
  H     2629.053    1191.884    -898.034
  H     2631.733    1188.902    -899.290
  H     2632.049    1188.322    -896.916
  H     2631.229    1190.411    -894.237
  H     2628.700    1189.174    -894.691
  H     2629.743    1187.020    -895.030
  H     2631.552    1187.767    -892.692
  H     2631.566    1185.343    -893.466
  H     2632.067    1185.873    -895.074
  P     2628.924    1185.185    -893.327
  C     2629.750    1183.743    -891.307
  O     2630.047    1184.389    -892.520
  O     2629.337    1185.038    -894.857
  O     2627.482    1184.745    -893.056
  H     2630.175    1185.523    -895.057
  H     2630.509    1182.987    -891.108
  H     2628.775    1183.229    -891.375
  H     2629.739    1184.484    -890.499
  H     2636.283    1189.514    -894.308
  H     2636.887    1188.054    -895.055
  H     2636.516    1188.073    -893.347

 3  4  5  6  7  8  9  10  11  12  13  24  28  29  30  31  32 0
 6-311+G(2d,p)
 ****
 33  34 0
 6-311+G(2d,p)
 ****
 1  2  14  15  16  17  18  19  20  21  22  23  25  26  27 0
 3-21G
 ****
 35  36  37  38  39  40  41  42  43  44  45 0
 3-21G
 ****


