%nproc=1
%NoSave
%Mem=1900MB
#P OB98/GEN NMR

erre ene a

0 1
  C       69.839    -420.952    -160.362
  O       70.032    -420.214    -159.170
  H       70.747    -420.886    -160.964
  H       69.003    -420.552    -160.939
  H       69.655    -422.005    -160.122
  P       68.753    -419.927    -158.245
  C       69.281    -421.825    -156.579
  O       68.382    -421.342    -157.575
  C       68.526    -422.364    -155.366
  O       67.680    -421.344    -154.796
  C       67.587    -423.519    -155.680
  O       68.226    -424.709    -156.082
  C       66.688    -423.533    -154.455
  O       67.273    -424.234    -153.360
  C       66.588    -422.023    -154.130
  N       65.294    -421.458    -154.498
  C       64.283    -421.589    -153.558
  O       64.427    -422.160    -152.478
  N       63.069    -421.061    -153.912
  C       62.766    -420.480    -155.105
  O       61.653    -420.049    -155.375
  C       63.872    -420.409    -156.079
  C       65.066    -420.890    -155.738
  O       67.597    -419.257    -158.928
  O       69.347    -419.091    -157.015
  H       66.572    -424.362    -152.691
  H       68.628    -418.644    -156.506
  H       62.323    -421.133    -153.236
  H       63.666    -419.964    -157.041
  H       65.896    -420.846    -156.434
  H       66.737    -421.858    -153.052
  H       65.723    -424.002    -154.659
  H       66.951    -423.223    -156.526
  H       69.262    -422.647    -154.605
  H       69.911    -420.984    -156.265
  H       69.916    -422.604    -157.009
  P       67.499    -425.885    -156.872
  C       68.022    -425.468    -159.403
  O       67.093    -425.347    -158.330
  O       66.486    -426.680    -156.111
  O       68.739    -426.866    -157.208
  H       68.394    -427.780    -157.183
  H       67.592    -425.062    -160.295
  H       68.256    -426.501    -159.558
  H       68.916    -424.932    -159.163

 6  7  8  9  10  11  12  13  14  15  16  26  31  32  33  34  35 0
 6-311+G(2d,p)
 ****
 36  37 0
 6-311+G(2d,p)
 ****
 1  2  3  4  5  17  18  19  20  21  22  23  24  25 0
 3-21G
 ****
 27  28  29  30  38  39  40  41  42  43  44  45 0
 3-21G
 ****


