%nproc=1
%NoSave
%Mem=1900MB
#P OB98/GEN NMR

erre ene a

0 1
  C      141.637     771.840    -299.996
  O      140.242     771.643    -299.880
  H      142.020     771.168    -300.768
  H      142.133     771.601    -299.053
  H      141.861     772.873    -300.286
  P      139.404     772.617    -298.922
  C      138.155     773.834    -300.827
  O      138.048     772.979    -299.696
  C      136.824     773.876    -301.573
  O      136.594     772.626    -302.264
  C      135.615     774.084    -300.670
  O      135.507     775.424    -300.256
  C      134.494     773.598    -301.581
  O      134.113     774.628    -302.508
  C      135.167     772.416    -302.310
  N      134.807     771.117    -301.744
  C      133.504     770.683    -301.968
  O      132.666     771.343    -302.579
  N      133.184     769.461    -301.434
  C      133.979     768.700    -300.629
  O      133.610     767.657    -300.099
  C      135.336     769.225    -300.401
  C      135.679     770.388    -300.962
  O      140.149     773.787    -298.371
  O      138.897     771.646    -297.749
  H      133.642     774.179    -303.237
  H      139.426     771.812    -296.944
  H      132.237     769.136    -301.579
  H      136.001     768.646    -299.775
  H      136.675     770.790    -300.800
  H      134.888     772.417    -303.371
  H      133.599     773.319    -301.020
  H      135.679     773.409    -299.803
  H      136.879     774.676    -302.333
  H      138.934     773.441    -301.490
  H      138.443     774.835    -300.486
  P      134.500     775.810    -299.067
  C      135.540     774.549    -297.080
  O      135.339     775.819    -297.699
  O      133.229     775.030    -299.022
  O      134.206     777.363    -299.311
  H      133.250     777.497    -299.464
  H      136.108     774.676    -296.182
  H      136.071     773.906    -297.750
  H      134.592     774.113    -296.844

 6  7  8  9  10  11  12  13  14  15  16  26  31  32  33  34  35 0
 6-311+G(2d,p)
 ****
 36  37 0
 6-311+G(2d,p)
 ****
 1  2  3  4  5  17  18  19  20  21  22  23  24  25 0
 3-21G
 ****
 27  28  29  30  38  39  40  41  42  43  44  45 0
 3-21G
 ****


