%nproc=1
%NoSave
%Mem=1900MB
#P OB98/GEN NMR

erre ene a

0 1
  C       47.519    -199.649     127.406
  O       47.932    -200.714     128.245
  H       47.687    -198.703     127.937
  H       46.459    -199.745     127.171
  H       48.115    -199.641     126.486
  P       47.776    -202.196     127.657
  C       45.744    -202.791     129.172
  O       46.220    -202.595     127.846
  C       44.248    -202.503     129.252
  O       43.561    -203.300     128.236
  C       43.606    -202.844     130.599
  O       42.618    -201.861     130.916
  C       42.920    -204.173     130.351
  O       41.872    -204.433     131.262
  C       42.474    -203.976     128.898
  N       39.351    -206.215     125.628
  C       39.438    -204.891     126.030
  N       38.557    -204.035     125.486
  N       40.320    -204.444     126.900
  C       41.159    -205.414     127.348
  C       41.172    -206.754     127.036
  C       40.187    -207.243     126.087
  O       40.056    -208.394     125.703
  N       42.165    -207.415     127.731
  C       42.753    -206.474     128.464
  N       42.160    -205.242     128.259
  O       48.517    -203.106     128.751
  O       48.310    -202.407     126.282
  H       42.192    -204.225     132.165
  H       48.904    -203.900     128.336
  H       38.652    -206.489     124.969
  H       43.570    -206.616     129.145
  H       41.572    -203.360     128.815
  H       43.652    -204.990     130.417
  H       37.863    -204.286     124.784
  H       44.341    -202.897     131.419
  H       38.599    -203.047     125.766
  H       44.077    -201.453     128.985
  H       46.282    -202.119     129.848
  H       45.937    -203.827     129.481
  P       42.823    -200.998     132.246
  C       42.484    -202.792     134.103
  O       43.393    -201.965     133.410
  O       41.302    -200.704     132.724
  O       43.569    -199.719     132.043
  H       41.079    -199.781     132.571
  H       43.012    -203.367     134.835
  H       42.003    -203.451     133.411
  H       41.748    -202.185     134.588

 6  7  8  9  10  11  12  13  14  15  26  29  33  34 0
 6-311+G(2d,p)
 ****
 36  38  39  40  41 0
 6-311+G(2d,p)
 ****
 1  2  3  4  5  16  17  18  19  20  21  22  23  24  25 0
 3-21G
 ****
 27  28  30  31  32  35  37  42  43  44  45  46  47 0
 3-21G
 ****
 48  49 0
 3-21G
 ****


