%nproc=1
%NoSave
%Mem=1900MB
#P OB98/GEN NMR

erre ene a

0 1
  C      515.575     195.515       1.989
  O      516.514     195.022       2.947
  P      518.074     195.305       2.696
  C      518.328     193.231       1.053
  O      518.787     193.968       2.173
  C      519.508     192.492       0.410
  O      520.464     193.447      -0.108
  C      520.261     191.587       1.380
  O      519.677     190.309       1.473
  C      521.654     191.584       0.789
  O      521.713     190.701      -0.345
  C      521.795     193.064       0.340
  N      522.271     194.053       1.323
  C      523.594     194.500       1.287
  O      524.427     194.107       0.467
  N      523.945     195.423       2.234
  C      523.092     196.078       3.079
  O      523.456     196.951       3.867
  C      521.683     195.690       2.982
  C      521.343     194.695       2.135
  O      518.661     195.488       4.177
  O      518.364     196.483       1.830
  H      521.120     191.072      -1.029
  H      518.993     196.401       4.288
  H      524.916     195.707       2.258
  H      520.978     196.204       3.611
  H      520.309     194.403       2.061
  H      522.467     193.130      -0.523
  H      522.394     191.211       1.508
  H      520.313     192.060       2.375
  H      519.127     191.900      -0.425
  H      517.852     193.893       0.325
  H      517.562     192.517       1.384
  P      518.772     189.923       2.741
  C      520.709     189.454       4.363
  O      519.654     188.889       3.607
  O      517.383     189.482       2.439
  O      518.813     191.243       3.639
  H      518.015     191.812       3.472
  H      521.124     188.686       5.017
  H      520.334     190.279       4.971
  H      521.507     189.803       3.696
  H      514.584     195.249       2.292
  H      515.783     195.085       1.032
  H      515.655     196.580       1.926

 3  4  5  6  7  8  9  10  11  12  13  23  28  29  30  31  32 0
 6-311+G(2d,p)
 ****
 33  34 0
 6-311+G(2d,p)
 ****
 1  2  14  15  16  17  18  19  20  21  22  24  25  26  27 0
 3-21G
 ****
 35  36  37  38  39  40  41  42  43  44  45 0
 3-21G
 ****


