%nproc=1
%NoSave
%Mem=1900MB
#P OB98/GEN NMR

erre ene a

0 1
  C      -95.919     -89.199     318.678
  O      -95.551     -90.466     319.193
  H      -95.930     -89.255     317.584
  H      -95.190     -88.444     318.985
  H      -96.916     -88.922     319.030
  P      -95.494     -90.594     320.791
  C      -93.540     -90.105     322.447
  O      -94.219     -89.736     321.256
  C      -92.175     -89.408     322.522
  O      -91.387     -89.800     321.359
  C      -92.260     -87.869     322.501
  O      -91.123     -87.356     323.218
  C      -92.102     -87.572     321.018
  O      -91.820     -86.208     320.801
  C      -91.009     -88.585     320.673
  N      -88.099     -87.771     316.549
  C      -87.929     -87.446     317.847
  N      -88.741     -87.708     318.891
  C      -89.823     -88.397     318.492
  C      -90.127     -88.807     317.204
  C      -89.211     -88.462     316.197
  N      -89.385     -88.785     314.869
  N      -91.332     -89.495     317.183
  C      -91.740     -89.498     318.436
  N      -90.867     -88.841     319.259
  O      -95.036     -92.112     321.021
  O      -96.763     -90.277     321.509
  H      -92.634     -85.666     320.884
  H      -95.818     -92.675     321.170
  H      -87.015     -86.897     318.080
  H      -92.659     -89.947     318.800
  H      -90.030     -88.276     321.055
  H      -93.024     -87.795     320.475
  H      -93.178     -87.480     322.946
  H      -91.638     -89.768     323.406
  H      -93.404     -91.191     322.447
  H      -94.144     -89.817     323.314
  H      -88.687     -88.485     314.208
  H      -90.216     -89.283     314.591
  P      -91.322     -86.831     324.726
  C      -92.383     -84.738     325.890
  O      -92.088     -85.419     324.680
  O      -89.833     -86.382     325.124
  O      -91.854     -87.830     325.699
  H      -89.716     -86.464     326.090
  H      -92.891     -83.823     325.669
  H      -91.473     -84.524     326.410
  H      -93.008     -85.354     326.503

 6  7  8  9  10  11  12  13  14  15  25  28  32  33  34  35 0
 6-311+G(2d,p)
 ****
 36  37  40 0
 6-311+G(2d,p)
 ****
 1  2  3  4  5  16  17  18  19  20  21  22  23  24 0
 3-21G
 ****
 26  27  29  30  31  38  39 41  42  43  44  45  46  47  48 0
 3-21G
 ****


