%nproc=1
%NoSave
%Mem=1900MB
#P OB98/GEN NMR

erre ene a

0 1
  C     -596.308     322.764     129.266
  O     -596.622     323.832     130.168
  P     -595.446     324.315     131.148
  C     -596.561     324.075     133.491
  O     -595.628     323.552     132.554
  C     -597.187     322.942     134.297
  O     -597.691     321.883     133.437
  C     -596.209     322.261     135.243
  O     -595.952     323.076     136.378
  C     -596.953     320.961     135.544
  O     -597.981     321.180     136.530
  C     -597.596     320.640     134.181
  N     -597.750     315.980     132.078
  C     -598.656     316.677     132.802
  N     -598.537     317.909     133.328
  C     -597.337     318.444     133.036
  C     -596.310     317.853     132.308
  C     -596.549     316.561     131.823
  N     -595.616     315.840     131.102
  N     -595.235     318.698     132.219
  C     -595.581     319.770     132.904
  N     -596.850     319.674     133.404
  O     -595.849     325.829     131.481
  O     -594.086     324.217     130.549
  H     -598.312     320.303     136.809
  H     -595.231     326.441     131.036
  H     -599.603     316.173     132.989
  H     -594.955     320.647     133.062
  H     -598.621     320.256     134.290
  H     -596.296     320.178     135.928
  H     -595.264     322.042     134.724
  H     -598.036     323.353     134.862
  H     -597.345     324.633     132.962
  H     -595.843     314.888     130.856
  H     -594.689     316.225     130.983
  H     -596.047     324.792     134.138
  P     -594.741     324.119     136.290
  C     -592.972     322.258     136.334
  O     -593.563     323.295     135.570
  O     -594.258     324.174     137.808
  O     -595.086     325.432     135.668
  H     -594.177     323.282     138.199
  H     -592.214     321.758     135.720
  H     -593.727     321.524     136.649
  H     -592.486     322.679     137.221
  H     -597.167     322.536     128.671
  H     -596.021     321.898     129.825
  H     -595.501     323.061     128.629

 3  4  5  6  7  8  9  10  11  12  22  25  29  30  31  32 0
 6-311+G(2d,p)
 ****
 33  36  37 0
 6-311+G(2d,p)
 ****
 1  2  13  14  15  16  17  18  19  20  21  23  24  26 0
 3-21G
 ****
 27  28  34  35  38  39  40  41  42  43  44  45  46  47  48 0
 3-21G
 ****


