%nproc=1
%NoSave
%Mem=1900MB
#P OB98/GEN NMR

erre ene a

0 1
  C      124.990     202.585    -221.967
  O      125.162     202.909    -220.583
  P      126.446     203.781    -220.182
  C      125.542     204.166    -217.771
  O      126.620     203.728    -218.589
  C      125.728     203.655    -216.339
  O      125.485     202.237    -216.256
  C      127.140     203.848    -215.812
  O      127.344     205.192    -215.417
  C      127.186     202.854    -214.658
  O      126.758     203.451    -213.423
  C      126.199     201.752    -215.105
  N      126.859     200.488    -215.387
  C      127.286     199.758    -214.272
  O      127.119     200.207    -213.136
  N      127.917     198.557    -214.477
  C      128.124     198.135    -215.686
  N      128.758     196.940    -215.827
  C      127.711     198.887    -216.891
  C      127.093     200.045    -216.669
  O      125.966     205.284    -220.451
  O      127.674     203.447    -220.964
  H      125.880     203.844    -213.612
  H      126.716     205.832    -220.743
  H      127.913     198.499    -217.877
  H      126.754     200.663    -217.493
  H      125.448     201.575    -214.326
  H      128.203     202.482    -214.493
  H      127.868     203.561    -216.580
  H      125.008     204.174    -215.688
  H      129.028     196.453    -214.979
  H      124.593     203.810    -218.175
  H      128.974     196.523    -216.717
  H      125.503     205.260    -217.793
  P      128.703     205.903    -215.872
  C      127.628     207.731    -217.318
  O      128.308     207.441    -216.115
  O      128.875     205.369    -217.374
  O      129.919     205.651    -215.046
  H      129.729     205.659    -217.740
  H      127.240     208.750    -217.263
  H      126.790     207.046    -217.466
  H      128.321     207.665    -218.163
  H      124.100     202.005    -222.089
  H      125.833     202.021    -222.309
  H      124.909     203.487    -222.537

 3  4  5  6  7  8  9  10  11  12  13  21  23  27  28  29  30  32 0
 6-311+G(2d,p)
 ****
 34  35 0
 6-311+G(2d,p)
 ****
 1  2  14  15  16  17  18  19  20  22  24  25  26 0
 3-21G
 ****
 31  33  36  37  38  39  40  41  42  43  44  45  46 0
 3-21G
 ****


