%nproc=1
%NoSave
%Mem=1900MB
#P OB98/GEN NMR

erre ene a

0 1
  C       71.688      15.519      38.993
  O       71.131      14.950      37.825
  H       70.981      15.389      39.816
  H       71.860      16.588      38.847
  H       72.626      15.024      39.257
  P       72.031      14.869      36.501
  C       71.007      12.591      35.855
  O       71.247      13.936      35.462
  C       70.438      11.801      34.679
  O       71.394      11.760      33.596
  C       70.125      10.347      35.009
  O       68.928      10.237      35.753
  C       70.066       9.744      33.615
  O       68.794       9.998      32.999
  C       71.193      10.514      32.892
  N       72.437       9.750      32.805
  C       72.511       8.801      31.790
  O       71.587       8.567      31.014
  N       73.686       8.099      31.716
  C       74.719       8.172      32.604
  O       75.712       7.456      32.543
  C       74.575       9.174      33.669
  C       73.460       9.906      33.719
  O       73.463      14.513      36.714
  O       71.881      16.327      35.855
  H       68.116       9.789      33.671
  H       72.699      16.835      36.010
  H       73.753       7.397      30.997
  H       75.380       9.272      34.383
  H       73.333      10.645      34.500
  H       70.882      10.777      31.873
  H       70.207       8.664      33.625
  H       70.963       9.896      35.553
  H       69.541      12.321      34.317
  H       70.286      12.588      36.679
  H       71.947      12.149      36.203
  P       68.744       9.037      36.795
  C       67.147      10.462      38.218
  O       67.329       9.233      37.522
  O       69.898       8.803      37.712
  O       68.495       7.760      35.863
  H       69.198       7.102      36.021
  H       66.173      10.481      38.660
  H       67.243      11.278      37.532
  H       67.888      10.551      38.984

 6  7  8  9  10  11  12  13  14  15  16  26  31  32  33  34  35 0
 6-311+G(2d,p)
 ****
 36  37 0
 6-311+G(2d,p)
 ****
 1  2  3  4  5  17  18  19  20  21  22  23  24  25 0
 3-21G
 ****
 27  28  29  30  38  39  40  41  42  43  44  45 0
 3-21G
 ****


