%nproc=1
%NoSave
%Mem=1900MB
#P OB98/GEN NMR

erre ene a

0 1
  C      199.869     411.031     -19.374
  O      199.752     411.762     -20.599
  P      200.807     411.432     -21.760
  C      199.353     409.664     -23.001
  O      200.007     410.930     -23.052
  C      197.834     409.856     -22.996
  O      197.412     410.657     -21.880
  C      197.320     410.586     -24.228
  O      197.266     409.707     -25.338
  C      195.955     411.071     -23.762
  O      194.923     410.109     -24.035
  C      196.148     411.252     -22.238
  N      196.083     412.643     -21.822
  C      194.971     413.002     -21.050
  O      194.104     412.165     -20.787
  N      194.852     414.304     -20.634
  C      195.753     415.178     -20.975
  N      195.581     416.451     -20.532
  C      196.930     414.841     -21.805
  C      197.026     413.574     -22.194
  O      201.532     410.111     -21.233
  O      201.788     412.535     -22.015
  H      194.950     409.960     -25.002
  H      202.460     410.093     -21.520
  H      197.648     415.604     -22.069
  H      197.860     413.241     -22.803
  H      195.378     410.695     -21.686
  H      195.665     411.998     -24.270
  H      197.964     411.445     -24.450
  H      197.357     408.866     -22.920
  H      194.761     416.640     -19.962
  H      199.665     409.121     -22.106
  H      196.213     417.201     -20.742
  H      199.672     409.065     -23.858
  P      197.832     410.245     -26.737
  C      199.607     408.397     -26.884
  O      198.438     408.944     -27.465
  O      199.156     411.021     -26.290
  O      196.928     411.101     -27.561
  H      199.556     411.481     -27.050
  H      199.795     407.416     -27.334
  H      199.481     408.262     -25.806
  H      200.468     409.044     -27.085
  H      199.107     411.350     -18.694
  H      200.831     411.211     -18.942
  H      199.756     409.985     -19.570

 3  4  5  6  7  8  9  10  11  12  13  21  23  27  28  29  30  32 0
 6-311+G(2d,p)
 ****
 34  35 0
 6-311+G(2d,p)
 ****
 1  2  14  15  16  17  18  19  20  22  24  25  26 0
 3-21G
 ****
 31  33  36  37  38  39  40  41  42  43  44  45  46 0
 3-21G
 ****


