%nproc=1
%NoSave
%Mem=1900MB
#P OB98/GEN NMR

erre ene a

0 1
  C       78.985      56.465     286.833
  O       79.840      57.588     286.969
  P       79.873      58.309     288.406
  C       78.685      60.346     287.282
  O       78.737      59.435     288.368
  C       77.845      61.566     287.668
  O       76.515      61.157     288.044
  C       78.397      62.356     288.846
  O       79.426      63.231     288.419
  C       77.148      63.070     289.345
  O       76.874      64.241     288.552
  C       76.064      62.000     289.142
  N       72.551      60.647     292.513
  C       72.520      61.632     291.544
  N       71.366      62.325     291.431
  N       73.525      61.909     290.757
  C       74.617      61.145     290.993
  C       74.774      60.151     291.932
  C       73.639      59.819     292.760
  O       73.584      58.894     293.565
  N       76.036      59.614     291.890
  C       76.627      60.260     290.903
  N       75.802      61.186     290.314
  O       81.243      59.131     288.364
  O       79.790      57.386     289.582
  H       77.594      64.887     288.674
  H       81.951      58.648     288.831
  H       71.741      60.465     293.080
  H       77.635      60.084     290.566
  H       75.106      62.439     288.836
  H       77.252      63.411     290.379
  H       70.558      62.183     292.017
  H       78.768      61.675     289.624
  H       71.326      63.054     290.728
  H       77.757      62.206     286.782
  H       78.228      59.851     286.420
  H       79.705      60.645     287.016
  P       80.349      63.897     289.549
  C       80.161      66.430     289.003
  O       79.764      65.360     289.837
  O       81.725      64.179     288.781
  O       80.565      63.042     290.754
  H       82.472      64.040     289.390
  H       79.350      67.161     288.959
  H       80.388      66.089     287.987
  H       81.046      66.905     289.428
  H       79.056      56.081     285.837
  H       77.975      56.759     287.031
  H       79.278      55.707     287.529

 3  4  5  6  7  8  9  10  11  12  23  26  30  31 0
 6-311+G(2d,p)
 ****
 33  35  36  37  38 0
 6-311+G(2d,p)
 ****
 1  2  13  14  15  16  17  18  19  20  21  22  24  25 0
 3-21G
 ****
 27  28  29  32  34  39  40  41  42  43  44  45  46  47  48  49 0
 3-21G
 ****


