%nproc=1
%NoSave
%Mem=1900MB
#P OB98/GEN NMR

erre ene a

0 1
  C      134.628    -150.611       8.509
  O      134.130    -151.909       8.860
  P      135.118    -152.913       9.626
  C      135.016    -151.765      11.957
  O      135.807    -152.109      10.829
  C      135.581    -152.425      13.221
  O      136.885    -151.903      13.558
  C      134.714    -152.214      14.456
  O      133.646    -153.147      14.515
  C      135.714    -152.505      15.564
  O      135.855    -153.930      15.736
  C      137.008    -151.902      15.003
  N      137.517    -148.980      19.100
  C      137.286    -150.338      18.999
  N      137.180    -151.019      20.161
  N      137.166    -150.972      17.860
  C      137.309    -150.166      16.783
  C      137.538    -148.808      16.756
  C      137.653    -148.118      18.019
  O      137.844    -146.914      18.173
  N      137.618    -148.342      15.471
  C      137.457    -149.415      14.719
  N      137.249    -150.545      15.470
  O      136.323    -153.089       8.583
  O      134.504    -154.223       9.985
  H      136.193    -154.281      14.890
  H      136.746    -153.956       8.710
  H      137.594    -148.543      20.002
  H      137.483    -149.425      13.637
  H      137.893    -152.494      15.260
  H      135.395    -152.100      16.531
  H      137.313    -150.604      21.069
  H      134.367    -151.176      14.526
  H      137.046    -152.021      20.107
  H      135.676    -153.503      13.027
  H      133.981    -152.079      11.806
  H      134.989    -150.676      12.053
  P      132.147    -152.572      14.485
  C      131.691    -152.856      11.943
  O      131.934    -151.969      13.017
  O      132.247    -151.280      15.427
  O      131.105    -153.523      14.961
  H      131.396    -151.132      15.881
  H      131.410    -152.273      11.064
  H      130.878    -153.544      12.188
  H      132.598    -153.423      11.716
  H      133.861    -150.059       8.007
  H      135.473    -150.716       7.862
  H      134.921    -150.089       9.396

 3  4  5  6  7  8  9  10  11  12  23  26  30  31 0
 6-311+G(2d,p)
 ****
 33  35  36  37  38 0
 6-311+G(2d,p)
 ****
 1  2  13  14  15  16  17  18  19  20  21  22  24  25 0
 3-21G
 ****
 27  28  29  32  34  39  40  41  42  43  44  45  46  47  48  49 0
 3-21G
 ****


