%nproc=1
%NoSave
%Mem=1900MB
#P OB98/GEN NMR

erre ene a

0 1
  C     -283.514      73.811    -356.455
  O     -283.400      72.827    -357.488
  P     -282.787      73.147    -358.934
  C     -281.398      71.068    -359.571
  O     -282.613      71.778    -359.754
  C     -281.599      69.553    -359.681
  O     -282.387      69.061    -358.577
  C     -282.331      69.097    -360.941
  O     -281.485      69.142    -362.075
  C     -282.777      67.698    -360.527
  O     -281.717      66.745    -360.706
  C     -283.096      67.887    -359.034
  N     -284.524      68.005    -358.774
  C     -285.227      66.803    -358.606
  O     -284.649      65.720    -358.752
  N     -286.572      66.860    -358.326
  C     -287.174      68.007    -358.281
  N     -288.500      67.996    -357.984
  C     -286.488      69.291    -358.525
  C     -285.178      69.211    -358.763
  O     -281.557      73.991    -358.899
  O     -283.968      73.903    -359.720
  H     -281.390      66.862    -361.617
  H     -283.570      74.533    -360.352
  H     -287.031      70.222    -358.506
  H     -284.600      70.107    -358.951
  H     -282.698      67.049    -358.444
  H     -283.632      67.344    -361.108
  H     -283.221      69.727    -361.093
  H     -280.609      69.079    -359.628
  H     -288.940      67.105    -357.813
  H     -281.005      71.306    -358.568
  H     -289.069      68.839    -357.916
  H     -280.670      71.410    -360.316
  P     -281.779      70.207    -363.238
  C     -279.282      69.885    -363.761
  O     -280.576      70.094    -364.294
  O     -282.102      71.592    -362.790
  O     -283.007      69.563    -364.036
  H     -283.558      70.283    -364.402
  H     -278.646      69.444    -364.542
  H     -279.317      69.220    -362.894
  H     -278.849      70.842    -363.459
  H     -283.950      73.366    -355.585
  H     -284.135      74.614    -356.794
  H     -282.542      74.189    -356.213

 3  4  5  6  7  8  9  10  11  12  13  23  27  28  29  30  32 0
 6-311+G(2d,p)
 ****
 34  35 0
 6-311+G(2d,p)
 ****
 1  2  14  15  16  17  18  19  20  21  22  24  25  26 0
 3-21G
 ****
 31  33  36  37  38  39  40  41  42  43  44  45  46 0
 3-21G
 ****


