%nproc=1
%NoSave
%Mem=1900MB
#P OB98/GEN NMR

erre ene a

0 1
  C     -296.726    -160.564     175.992
  O     -297.889    -160.216     175.264
  H     -297.006    -161.248     176.796
  H     -296.282    -159.667     176.431
  H     -296.001    -161.059     175.341
  P     -297.660    -159.404     173.902
  C     -296.576    -161.549     172.851
  O     -296.488    -160.151     173.094
  C     -295.549    -161.966     171.803
  O     -295.653    -163.374     171.514
  C     -295.741    -161.307     170.446
  O     -295.370    -159.946     170.446
  C     -294.841    -162.181     169.580
  O     -293.475    -161.754     169.636
  C     -295.009    -163.574     170.234
  N     -295.746    -164.485     169.380
  C     -294.958    -165.342     168.597
  O     -293.730    -165.301     168.682
  N     -295.583    -166.188     167.720
  C     -296.875    -166.167     167.610
  N     -297.428    -167.009     166.698
  C     -297.739    -165.278     168.412
  C     -297.115    -164.470     169.270
  O     -296.955    -158.063     174.414
  O     -298.894    -159.176     173.095
  H     -292.947    -162.463     169.214
  H     -296.210    -158.219     175.018
  H     -298.813    -165.307     168.293
  H     -297.672    -163.786     169.900
  H     -294.027    -164.019     170.446
  H     -295.141    -162.149     168.529
  H     -296.774    -161.439     170.104
  H     -294.548    -161.764     172.207
  H     -296.796    -167.559     166.130
  H     -297.586    -161.820     172.523
  H     -298.412    -167.021     166.471
  H     -296.386    -162.063     173.798
  P     -295.918    -158.935     169.330
  C     -297.333    -157.458     170.897
  O     -297.349    -158.414     169.841
  O     -295.920    -159.462     167.936
  O     -295.000    -157.637     169.536
  H     -295.054    -157.236     170.420
  H     -298.337    -157.189     171.149
  H     -296.799    -156.587     170.581
  H     -296.851    -157.881     171.754

 6  7  8  9  10  11  12  13  14  15  16  26  30  31  32  33  35 0
 6-311+G(2d,p)
 ****
 37  38 0
 6-311+G(2d,p)
 ****
 1  2  3  4  5  17  18  19  20  21  22  23  24  25 0
 3-21G
 ****
 27  28  29  34  36  39  40  41  42  43  44  45  46 0
 3-21G
 ****


