%nproc=1
%NoSave
%Mem=1900MB
#P OB98/GEN NMR

erre ene a

0 1
  C     -135.999     -31.530     -81.996
  O     -137.377     -31.838     -81.876
  P     -138.225     -31.930     -83.238
  C     -140.041     -30.053     -83.330
  O     -138.696     -30.436     -83.574
  C     -140.217     -29.706     -81.850
  O     -139.024     -29.078     -81.339
  C     -141.362     -28.743     -81.564
  O     -142.594     -29.438     -81.522
  C     -140.936     -28.155     -80.222
  O     -141.277     -29.044     -79.141
  C     -139.415     -28.046     -80.389
  N     -137.658     -23.531     -78.943
  C     -138.184     -24.566     -78.188
  N     -138.198     -24.383     -76.849
  N     -138.646     -25.675     -78.697
  C     -138.579     -25.712     -80.050
  C     -138.096     -24.749     -80.908
  C     -137.541     -23.550     -80.326
  O     -136.977     -22.649     -80.941
  N     -138.215     -25.137     -82.217
  C     -138.737     -26.345     -82.149
  N     -138.958     -26.749     -80.857
  O     -139.564     -32.670     -82.781
  O     -137.539     -32.627     -84.370
  H     -142.230     -29.242     -79.174
  H     -139.525     -33.622     -82.997
  H     -137.301     -22.707     -78.493
  H     -138.954     -26.972     -82.999
  H     -138.882     -28.252     -79.453
  H     -141.435     -27.204     -80.014
  H     -137.882     -23.544     -76.387
  H     -141.392     -27.950     -82.322
  H     -138.584     -25.128     -76.279
  H     -140.359     -30.645     -81.299
  H     -140.705     -30.888     -83.584
  H     -140.291     -29.197     -83.962
  P     -143.939     -28.562     -81.561
  C     -145.268     -28.450     -79.333
  O     -144.169     -27.978     -80.089
  O     -145.090     -29.665     -81.724
  O     -143.990     -27.557     -82.664
  H     -145.804     -29.313     -82.289
  H     -145.012     -28.400     -78.273
  H     -145.523     -29.484     -79.590
  H     -146.134     -27.810     -79.519
  H     -135.554     -31.499     -81.023
  H     -135.886     -30.577     -82.470
  H     -135.516     -32.281     -82.586

 3  4  5  6  7  8  9  10  11  12  23  26  30  31 0
 6-311+G(2d,p)
 ****
 33  35  36  37  38 0
 6-311+G(2d,p)
 ****
 1  2  13  14  15  16  17  18  19  20  21  22  24  25 0
 3-21G
 ****
 27  28  29  32  34  39  40  41  42  43  44  45  46  47  48  49 0
 3-21G
 ****


