%nproc=1
%NoSave
%Mem=1900MB
#P OB98/GEN NMR

erre ene a

0 1
  C      884.750     424.879      62.915
  O      885.320     424.700      64.196
  H      885.485     424.579      62.162
  H      884.493     425.929      62.752
  H      883.860     424.255      62.798
  P      884.466     425.140      65.478
  C      883.762     427.398      66.533
  O      884.379     426.745      65.434
  C      884.068     428.900      66.510
  O      885.412     429.137      66.977
  C      883.989     429.535      65.132
  O      882.644     429.704      64.734
  C      884.774     430.819      65.363
  O      883.963     431.791      66.042
  C      885.909     430.312      66.285
  N      887.142     430.003      65.564
  C      887.728     431.067      64.871
  O      887.197     432.174      64.864
  N      888.895     430.830      64.179
  C      889.449     429.660      64.217
  N      890.605     429.495      63.513
  C      888.892     428.524      64.981
  C      887.744     428.763      65.606
  O      884.906     424.584      66.796
  O      882.968     424.693      65.118
  H      884.542     432.565      66.199
  H      882.781     423.810      65.485
  H      889.389     427.570      64.985
  H      887.260     427.982      66.195
  H      886.139     431.062      67.053
  H      885.113     431.269      64.437
  H      884.538     428.923      64.399
  H      883.382     429.396      67.210
  H      890.961     430.315      63.024
  H      884.159     426.947      67.443
  H      891.213     428.689      63.603
  H      882.678     427.237      66.513
  P      882.073     429.050      63.384
  C      881.502     430.020      61.064
  O      882.311     430.149      62.238
  O      880.677     428.527      63.478
  O      883.156     427.932      63.018
  H      883.039     427.134      63.594
  H      881.746     430.801      60.375
  H      880.469     430.092      61.333
  H      881.686     429.070      60.606

 6  7  8  9  10  11  12  13  14  15  16  26  30  31  32  33  35 0
 6-311+G(2d,p)
 ****
 37  38 0
 6-311+G(2d,p)
 ****
 1  2  3  4  5  17  18  19  20  21  22  23  24  25 0
 3-21G
 ****
 27  28  29  34  36  39  40  41  42  43  44  45  46 0
 3-21G
 ****


