%nproc=1
%NoSave
%Mem=1900MB
#P OB98/GEN NMR

erre ene a

0 1
  C       13.261    -101.351     -61.465
  O       12.686    -101.629     -60.198
  P       13.615    -101.873     -58.915
  C       12.448    -100.075     -57.495
  O       12.740    -101.460     -57.633
  C       11.692     -99.811     -56.194
  O       10.368    -100.387     -56.298
  C       12.362    -100.421     -54.969
  O       12.173     -99.546     -53.854
  C       11.580    -101.698     -54.710
  O       11.652    -102.081     -53.326
  C       10.184    -101.301     -55.201
  N        7.893    -105.698     -53.871
  C        8.558    -104.776     -53.141
  N        9.163    -103.645     -53.564
  C        8.983    -103.478     -54.884
  C        8.325    -104.330     -55.757
  C        7.763    -105.492     -55.202
  N        7.074    -106.426     -55.947
  N        8.373    -103.839     -57.048
  C        9.029    -102.704     -56.949
  N        9.410    -102.436     -55.660
  O       14.959    -101.234     -58.979
  O       13.717    -103.461     -58.787
  H       11.049    -102.843     -53.207
  H       14.616    -103.723     -58.506
  H        8.615    -104.976     -52.075
  H        9.264    -102.048     -57.773
  H        9.613    -100.783     -54.419
  H       12.000    -102.514     -55.308
  H       13.431    -100.614     -55.117
  H       11.571     -98.727     -56.072
  H       11.826     -99.768     -58.341
  H        6.603    -107.161     -55.446
  H        6.828    -106.188     -56.899
  H       13.381     -99.501     -57.525
  P       13.510     -99.123     -53.059
  C       12.687     -96.730     -52.448
  O       13.022     -98.023     -52.001
  O       14.614     -98.736     -53.986
  O       13.789    -100.444     -52.196
  H       12.965    -100.957     -52.045
  H       12.419     -96.119     -51.581
  H       11.828     -96.773     -53.122
  H       13.538     -96.268     -52.957
  H       12.484    -101.220     -62.188
  H       13.888    -102.167     -61.759
  H       13.845    -100.457     -61.403

 3  4  5  6  7  8  9  10  11  12  22  25  29  30  31  32 0
 6-311+G(2d,p)
 ****
 33  36  37 0
 6-311+G(2d,p)
 ****
 1  2  13  14  15  16  17  18  19  20  21  23  24  26 0
 3-21G
 ****
 27  28  34  35  38  39  40  41  42  43  44  45  46  47  48 0
 3-21G
 ****


