%nproc=1
%NoSave
%Mem=1900MB
#P OB98/GEN NMR

erre ene a

0 1
  C     -728.283    -479.121    -264.708
  O     -728.110    -478.632    -266.045
  P     -729.209    -477.622    -266.639
  C     -727.477    -475.754    -267.213
  O     -728.612    -476.142    -266.455
  C     -727.928    -474.936    -268.453
  O     -728.591    -473.744    -268.005
  C     -726.778    -474.481    -269.333
  O     -726.301    -475.527    -270.165
  C     -727.391    -473.327    -270.086
  O     -728.144    -473.782    -271.211
  C     -728.341    -472.707    -269.026
  N     -727.822    -471.479    -268.432
  C     -727.911    -470.346    -269.205
  O     -728.377    -470.341    -270.332
  N     -727.409    -469.198    -268.650
  C     -726.771    -469.099    -267.426
  O     -726.287    -468.047    -267.022
  C     -726.670    -470.345    -266.650
  C     -727.184    -471.475    -267.182
  O     -730.392    -477.665    -265.557
  O     -729.686    -477.952    -267.998
  H     -727.475    -473.986    -271.912
  H     -731.251    -477.569    -266.006
  H     -727.476    -468.349    -269.190
  H     -726.191    -470.305    -265.695
  H     -727.135    -472.410    -266.647
  H     -729.314    -472.501    -269.484
  H     -726.651    -472.612    -270.466
  H     -725.945    -474.089    -268.684
  H     -728.624    -475.562    -269.020
  H     -726.951    -476.644    -267.555
  H     -726.784    -475.186    -266.605
  P     -724.811    -475.385    -270.768
  C     -723.816    -476.224    -268.490
  O     -723.863    -475.218    -269.457
  O     -724.905    -473.923    -271.415
  O     -724.457    -476.483    -271.715
  H     -725.483    -473.328    -270.909
  H     -723.917    -477.226    -268.935
  H     -724.643    -476.079    -267.766
  H     -722.848    -476.161    -267.991
  H     -727.475    -479.778    -264.461
  H     -729.209    -479.653    -264.640
  H     -728.294    -478.297    -264.026

 3  4  5  6  7  8  9  10  11  12  13  23  28  29  30  31  32 0
 6-311+G(2d,p)
 ****
 33  34 0
 6-311+G(2d,p)
 ****
 1  2  14  15  16  17  18  19  20  21  22  24  25  26 0
 3-21G
 ****
 27  35  36  37  38  39  40  41  42  43  44  45 0
 3-21G
 ****


