%nproc=1
%NoSave
%Mem=1900MB
#P OB98/GEN NMR

erre ene a

0 1
  C      -33.457      25.100     -60.057
  O      -32.302      24.952     -59.246
  P      -32.358      23.877     -58.054
  C      -33.937      23.466     -56.022
  O      -33.587      24.309     -57.114
  C      -34.577      24.284     -54.909
  O      -33.587      25.077     -54.218
  C      -35.622      25.285     -55.390
  O      -36.885      24.676     -55.620
  C      -35.697      26.225     -54.196
  O      -36.524      25.649     -53.168
  C      -34.234      26.279     -53.738
  N      -33.344      31.212     -53.016
  C      -33.958      30.292     -52.188
  N      -34.461      30.772     -51.027
  N      -34.068      29.021     -52.468
  C      -33.530      28.687     -53.666
  C      -32.894      29.504     -54.573
  C      -32.788      30.913     -54.255
  O      -32.302      31.783     -54.970
  N      -32.472      28.802     -55.669
  C      -32.849      27.562     -55.430
  N      -33.533      27.446     -54.248
  O      -31.076      24.241     -57.169
  O      -32.349      22.454     -58.495
  H      -36.463      26.245     -52.392
  H      -30.855      23.494     -56.576
  H      -33.290      32.183     -52.759
  H      -32.663      26.719     -56.090
  H      -34.148      26.284     -52.646
  H      -36.132      27.197     -54.449
  H      -34.462      31.753     -50.784
  H      -35.268      25.838     -56.270
  H      -34.973      30.137     -50.431
  H      -35.015      23.586     -54.184
  H      -33.036      22.973     -55.647
  H      -34.629      22.692     -56.373
  P      -37.693      25.164     -56.921
  C      -38.352      27.506     -57.833
  O      -37.870      26.746     -56.740
  O      -39.161      24.576     -56.670
  O      -37.113      24.708     -58.218
  H      -39.621      24.439     -57.521
  H      -38.662      28.490     -57.466
  H      -39.210      27.024     -58.304
  H      -37.556      27.643     -58.568
  H      -33.276      25.845     -60.804
  H      -34.284      25.399     -59.448
  H      -33.682      24.167     -60.531

 3  4  5  6  7  8  9  10  11  12  23  26  30  31 0
 6-311+G(2d,p)
 ****
 33  35  36  37  38 0
 6-311+G(2d,p)
 ****
 1  2  13  14  15  16  17  18  19  20  21  22  24  25 0
 3-21G
 ****
 27  28  29  32  34  39  40  41  42  43  44  45  46  47  48  49 0
 3-21G
 ****


