%nproc=1
%NoSave
%Mem=1900MB
#P OB98/GEN NMR

erre ene a

0 1
  C      860.585    1391.371    1458.031
  O      859.508    1391.864    1458.781
  P      859.872    1392.801    1460.073
  C      860.463    1394.698    1458.393
  O      859.705    1394.307    1459.544
  C      859.765    1395.847    1457.646
  O      858.681    1395.310    1456.846
  C      859.137    1396.917    1458.525
  O      860.101    1397.847    1458.969
  C      858.154    1397.536    1457.557
  O      858.840    1398.437    1456.652
  C      857.634    1396.306    1456.780
  N      852.536    1396.821    1456.703
  C      853.523    1397.553    1456.171
  N      854.867    1397.373    1456.207
  C      855.170    1396.319    1457.016
  C      854.254    1395.451    1457.661
  C      852.914    1395.775    1457.493
  N      851.872    1394.990    1458.053
  N      854.911    1394.505    1458.386
  C      856.175    1394.725    1458.131
  N      856.399    1395.796    1457.306
  O      861.448    1392.606    1460.230
  O      859.127    1392.457    1461.297
  H      859.266    1399.113    1457.210
  H      861.705    1392.798    1461.159
  H      853.225    1398.405    1455.585
  H      856.989    1394.121    1458.496
  H      857.499    1396.531    1455.719
  H      857.383    1398.105    1458.066
  H      858.600    1396.469    1459.366
  H      860.515    1396.262    1456.953
  H      860.598    1393.834    1457.719
  H      850.968    1395.179    1457.726
  H      852.124    1394.078    1458.463
  H      861.482    1395.029    1458.734
  P      859.750    1398.676    1460.314
  C      861.288    1396.881    1461.411
  O      860.890    1398.257    1461.360
  O      858.418    1397.933    1460.866
  O      859.544    1400.133    1460.072
  H      857.910    1398.552    1461.387
  H      862.264    1396.836    1461.941
  H      861.415    1396.473    1460.411
  H      860.544    1396.310    1461.951
  H      860.214    1390.778    1457.221
  H      861.210    1390.769    1458.657
  H      861.153    1392.190    1457.642

 3  4  5  6  7  8  9  10  11  12  22  25  29  30  31  32 0
 6-311+G(2d,p)
 ****
 33  36  37 0
 6-311+G(2d,p)
 ****
 1  2  13  14  15  16  17  18  19  20  21  23  24  26 0
 3-21G
 ****
 27  28  34  35  38  39  40  41  42  43  44  45  46  47  48 0
 3-21G
 ****


