%nproc=1
%NoSave
%Mem=1900MB
#P OB98/GEN NMR

erre ene a

0 1
  C     -122.964    -180.275    -101.821
  O     -123.941    -179.946    -100.856
  P     -124.840    -178.627    -100.989
  C     -124.885    -176.306     -99.902
  O     -124.079    -177.430    -100.240
  C     -124.029    -175.068     -99.625
  O     -123.372    -174.654    -100.861
  C     -124.812    -173.864     -99.083
  O     -123.984    -173.221     -98.115
  C     -124.982    -172.987    -100.314
  O     -125.234    -171.630     -99.972
  C     -123.660    -173.254    -101.039
  N     -123.724    -172.904    -102.453
  C     -124.032    -171.578    -102.759
  O     -124.356    -170.795    -101.865
  N     -123.966    -171.177    -104.074
  C     -123.809    -172.062    -105.009
  N     -123.681    -171.617    -106.287
  C     -123.725    -173.518    -104.728
  C     -123.653    -173.859    -103.445
  O     -126.272    -178.793    -100.601
  O     -124.708    -178.226    -102.540
  H     -125.605    -178.121    -102.916
  H     -125.334    -171.113    -100.796
  H     -123.727    -174.224    -105.542
  H     -123.570    -174.895    -103.140
  H     -122.845    -172.685    -100.577
  H     -125.833    -173.352    -100.912
  H     -125.761    -174.155     -98.618
  H     -123.232    -175.352     -98.918
  H     -123.697    -170.616    -106.434
  H     -125.446    -176.554     -99.000
  H     -123.246    -172.184    -107.013
  H     -125.602    -176.104    -100.702
  P     -124.620    -172.036     -97.232
  C     -125.634    -169.696     -97.716
  O     -124.844    -170.773     -98.186
  O     -123.351    -171.575     -96.352
  O     -125.750    -172.414     -96.322
  H     -123.669    -171.157     -95.524
  H     -125.735    -168.963     -98.518
  H     -125.148    -169.210     -96.855
  H     -126.632    -170.042     -97.430
  H     -122.482    -181.189    -101.543
  H     -122.238    -179.491    -101.876
  H     -123.432    -180.395    -102.776

 3  4  5  6  7  8  9  10  11  12  13  24  27  28  29  30  32 0
 6-311+G(2d,p)
 ****
 34  35 0
 6-311+G(2d,p)
 ****
 1  2  14  15  16  17  18  19  20  21  22  23  25  26 0
 3-21G
 ****
 31  33  36  37  38  39  40  41  42  43  44  45  46 0
 3-21G
 ****


