%nproc=1
%NoSave
%Mem=1900MB
#P OB98/GEN NMR

erre ene a

0 1
  C     -172.995     195.425      64.077
  O     -171.761     196.036      63.778
  P     -171.710     197.415      62.963
  C     -169.794     198.075      64.551
  O     -170.242     198.023      63.201
  C     -168.490     198.863      64.641
  O     -168.608     200.146      63.974
  C     -168.075     199.218      66.061
  O     -167.719     198.156      66.918
  C     -167.025     200.286      65.807
  O     -165.763     199.707      65.474
  C     -167.624     201.020      64.579
  N     -168.198     202.313      64.945
  C     -167.392     203.423      64.718
  O     -166.260     203.357      64.241
  N     -167.918     204.630      65.090
  C     -169.126     204.825      65.696
  O     -169.517     205.932      66.044
  C     -169.925     203.614      65.925
  C     -169.435     202.430      65.546
  O     -172.826     198.362      63.246
  O     -171.634     196.938      61.436
  H     -165.539     199.066      66.177
  H     -170.861     196.387      61.220
  H     -167.346     205.446      64.946
  H     -170.894     203.735      66.393
  H     -170.007     201.522      65.707
  H     -166.848     201.192      63.823
  H     -166.867     200.920      66.685
  H     -168.924     199.715      66.550
  H     -167.712     198.299      64.121
  H     -169.619     197.055      64.906
  H     -170.574     198.520      65.178
  P     -168.112     198.105      68.471
  C     -168.538     195.549      68.411
  O     -167.841     196.620      69.010
  O     -169.397     198.755      68.859
  O     -166.896     198.920      69.134
  H     -167.220     199.378      69.932
  H     -168.268     194.624      68.929
  H     -168.260     195.453      67.357
  H     -169.618     195.696      68.500
  H     -172.822     194.521      64.622
  H     -173.511     195.200      63.167
  H     -173.588     196.090      64.669

 3  4  5  6  7  8  9  10  11  12  13  23  28  29  30  31  32 0
 6-311+G(2d,p)
 ****
 33  34 0
 6-311+G(2d,p)
 ****
 1  2  14  15  16  17  18  19  20  21  22  24  25  26  27 0
 3-21G
 ****
 35  36  37  38  39  40  41  42  43  44  45 0
 3-21G
 ****


