%nproc=1
%NoSave
%Mem=1900MB
#P OB98/GEN NMR

erre ene a

0 1
  C     -358.292     110.292     -69.374
  O     -357.441     111.375     -69.690
  H     -358.878     110.040     -70.262
  H     -358.976     110.560     -68.566
  H     -357.703     109.416     -69.086
  P     -356.518     111.988     -68.532
  C     -358.373     113.182     -67.196
  O     -357.231     113.337     -68.035
  C     -358.617     114.472     -66.396
  O     -357.503     114.655     -65.493
  C     -358.714     115.713     -67.300
  O     -359.897     116.479     -67.081
  C     -357.375     116.409     -67.090
  O     -357.387     117.804     -67.317
  C     -356.991     115.992     -65.664
  N     -355.556     116.036     -65.394
  C     -354.920     117.271     -65.518
  O     -355.477     118.332     -65.807
  N     -353.569     117.264     -65.279
  C     -352.816     116.177     -64.943
  O     -351.605     116.240     -64.740
  C     -353.538     114.901     -64.854
  C     -354.852     114.886     -65.080
  O     -355.070     112.138     -68.873
  O     -356.727     110.990     -67.296
  H     -357.554     117.947     -68.269
  H     -355.956     110.395     -67.219
  H     -353.100     118.157     -65.354
  H     -352.967     114.016     -64.602
  H     -355.421     113.962     -65.021
  H     -357.485     116.639     -64.931
  H     -356.643     115.974     -67.792
  H     -358.797     115.418     -68.356
  H     -359.521     114.345     -65.788
  H     -358.175     112.343     -66.515
  H     -359.251     112.950     -67.803
  P     -361.276     116.264     -67.857
  C     -360.715     117.961     -69.774
  O     -361.582     117.578     -68.715
  O     -362.394     115.715     -67.035
  O     -360.901     115.156     -68.974
  H     -361.711     114.615     -69.112
  H     -361.081     118.859     -70.227
  H     -360.679     117.181     -70.505
  H     -359.732     118.132     -69.386

 6  7  8  9  10  11  12  13  14  15  16  26  31  32  33  34  35 0
 6-311+G(2d,p)
 ****
 36  37 0
 6-311+G(2d,p)
 ****
 1  2  3  4  5  17  18  19  20  21  22  23  24  25 0
 3-21G
 ****
 27  28  29  30  38  39  40  41  42  43  44  45 0
 3-21G
 ****


