%nproc=1
%NoSave
%Mem=1900MB
#P OB98/GEN NMR

erre ene a

0 1
  C     -417.611    -284.036    -505.236
  O     -418.807    -284.218    -505.971
  P     -420.069    -284.831    -505.192
  C     -421.109    -282.655    -504.219
  O     -421.190    -283.690    -505.197
  C     -421.688    -281.353    -504.769
  O     -420.756    -280.750    -505.696
  C     -422.982    -281.530    -505.537
  O     -424.069    -281.698    -504.651
  C     -423.036    -280.231    -506.340
  O     -423.648    -279.181    -505.579
  C     -421.542    -279.932    -506.597
  N     -421.149    -280.144    -507.983
  C     -420.990    -278.988    -508.751
  O     -421.191    -277.872    -508.254
  N     -420.640    -279.114    -510.074
  C     -420.480    -280.298    -510.584
  N     -420.134    -280.374    -511.897
  C     -420.667    -281.547    -509.810
  C     -421.005    -281.398    -508.528
  O     -419.579    -284.861    -503.668
  O     -420.507    -286.175    -505.670
  H     -423.404    -278.346    -506.032
  H     -420.038    -285.556    -503.164
  H     -420.517    -282.509    -510.282
  H     -421.161    -282.259    -507.892
  H     -421.313    -278.891    -506.336
  H     -423.617    -280.339    -507.255
  H     -422.915    -282.381    -506.224
  H     -421.833    -280.656    -503.930
  H     -420.022    -279.501    -512.399
  H     -420.057    -282.485    -503.950
  H     -419.959    -281.243    -512.380
  H     -421.649    -282.969    -503.321
  P     -425.273    -282.645    -505.126
  C     -424.366    -284.547    -503.666
  O     -425.469    -283.699    -503.937
  O     -424.579    -283.540    -506.256
  O     -426.513    -281.970    -505.618
  H     -425.243    -284.098    -506.697
  H     -424.562    -285.098    -502.739
  H     -423.450    -283.964    -503.531
  H     -424.241    -285.261    -504.482
  H     -416.859    -283.623    -505.875
  H     -417.278    -284.980    -504.857
  H     -417.792    -283.368    -504.420

 3  4  5  6  7  8  9  10  11  12  13  21  23  27  28  29  30  32 0
 6-311+G(2d,p)
 ****
 34  35 0
 6-311+G(2d,p)
 ****
 1  2  14  15  16  17  18  19  20  22  24  25  26 0
 3-21G
 ****
 31  33  36  37  38  39  40  41  42  43  44  45  46 0
 3-21G
 ****


