%nproc=1
%NoSave
%Mem=1900MB
#P OB98/GEN NMR

erre ene a

0 1
  C      383.868     -63.966    -425.196
  O      384.361     -65.268    -425.448
  H      384.659     -63.379    -424.723
  H      383.008     -64.008    -424.522
  H      383.584     -63.487    -426.136
  P      383.335     -66.307    -426.111
  C      382.121     -66.008    -428.367
  O      383.366     -65.953    -427.679
  C      382.306     -65.639    -429.836
  O      382.614     -64.222    -429.923
  C      383.447     -66.402    -430.516
  O      383.068     -66.718    -431.855
  C      384.588     -65.400    -430.534
  O      385.521     -65.658    -431.581
  C      383.839     -64.076    -430.665
  N      388.008     -61.235    -431.422
  C      387.406     -62.182    -432.176
  N      386.284     -62.880    -431.907
  C      385.750     -62.483    -430.739
  C      386.250     -61.539    -429.861
  C      387.443     -60.898    -430.240
  N      388.074     -59.957    -429.464
  N      385.441     -61.443    -428.743
  C      384.463     -62.306    -428.952
  N      384.617     -62.971    -430.138
  O      381.978     -66.359    -425.495
  O      384.169     -67.673    -426.049
  H      385.889     -66.558    -431.450
  H      385.096     -67.536    -426.317
  H      387.896     -62.412    -433.123
  H      383.639     -62.496    -428.278
  H      383.592     -63.835    -431.707
  H      385.133     -65.445    -429.581
  H      383.715     -67.315    -429.984
  H      381.358     -65.790    -430.362
  H      381.406     -65.318    -427.905
  H      388.919     -59.536    -429.818
  H      387.657     -59.676    -428.585
  H      381.728     -67.025    -428.275
  P      382.680     -68.237    -432.202
  C      380.545     -69.689    -432.236
  O      381.148     -68.479    -431.788
  O      383.641     -69.279    -431.737
  O      382.598     -68.211    -433.803
  H      382.946     -69.051    -434.152
  H      379.531     -69.729    -431.896
  H      381.086     -70.524    -431.843
  H      380.565     -69.723    -433.305

 6  7  8  9  10  11  12  13  14  15  25  28  32  33  34  35 0
 6-311+G(2d,p)
 ****
 36  39  40 0
 6-311+G(2d,p)
 ****
 1  2  3  4  5  16  17  18  19  20  21  22  23  24 0
 3-21G
 ****
 26  27  29  30  31  37  38  41  42  43  44  45  46  47 0
 3-21G
 ****
 48 0
 3-21G
 ****


