%nproc=1
%NoSave
%Mem=1900MB
#P OB98/GEN NMR

erre ene a

0 1
  C      -22.553    -350.663    -182.900
  O      -22.013    -351.978    -183.056
  P      -20.551    -352.193    -183.697
  C      -20.243    -354.627    -182.952
  O      -20.368    -353.748    -184.065
  C      -20.717    -356.053    -183.241
  O      -22.146    -356.086    -183.486
  C      -20.039    -356.729    -184.435
  O      -19.966    -358.120    -184.110
  C      -21.037    -356.491    -185.557
  O      -20.860    -357.367    -186.656
  C      -22.364    -356.645    -184.798
  N      -23.478    -355.997    -185.488
  C      -24.431    -356.833    -186.074
  O      -24.283    -358.057    -186.048
  N      -25.504    -356.265    -186.726
  C      -25.560    -354.974    -186.858
  N      -26.629    -354.468    -187.530
  C      -24.533    -354.055    -186.328
  C      -23.536    -354.632    -185.652
  O      -19.433    -351.610    -182.897
  O      -20.651    -351.483    -185.133
  H      -21.559    -357.183    -187.318
  H      -19.768    -351.142    -185.382
  H      -24.606    -352.987    -186.487
  H      -22.732    -354.047    -185.218
  H      -22.616    -357.707    -184.666
  H      -20.938    -355.462    -185.928
  H      -19.047    -356.324    -184.660
  H      -20.548    -356.645    -182.333
  H      -27.301    -355.134    -187.903
  H      -20.825    -354.214    -182.117
  H      -26.713    -353.500    -187.784
  H      -19.193    -354.644    -182.630
  P      -18.683    -358.755    -183.394
  C      -20.297    -360.095    -181.924
  O      -19.147    -360.153    -182.755
  O      -17.974    -357.845    -182.448
  O      -17.717    -359.205    -184.595
  H      -16.815    -359.343    -184.247
  H      -20.644    -361.112    -181.719
  H      -21.106    -359.535    -182.410
  H      -20.040    -359.614    -180.974
  H      -23.526    -350.727    -182.460
  H      -22.625    -350.191    -183.858
  H      -21.912    -350.087    -182.266

 3  4  5  6  7  8  9  10  11  12  13  23  27  28  29  30  32 0
 6-311+G(2d,p)
 ****
 34  35 0
 6-311+G(2d,p)
 ****
 1  2  14  15  16  17  18  19  20  21  22  24  25  26 0
 3-21G
 ****
 31  33  36  37  38  39  40  41  42  43  44  45  46 0
 3-21G
 ****


