%nproc=1
%NoSave
%Mem=1900MB
#P OB98/GEN NMR

erre ene a

0 1
  C     -138.151    -171.633      47.304
  O     -139.194    -170.961      47.979
  H     -137.224    -171.499      47.869
  H     -138.011    -171.219      46.302
  H     -138.367    -172.705      47.239
  P     -140.657    -170.947      47.323
  C     -140.004    -168.829      45.997
  O     -140.536    -170.148      45.934
  C     -140.766    -167.906      45.033
  O     -140.337    -168.224      43.684
  C     -142.291    -168.101      45.115
  O     -142.995    -166.879      45.327
  C     -142.606    -168.900      43.855
  O     -143.922    -168.739      43.374
  C     -141.507    -168.464      42.880
  N     -141.218    -169.447      41.836
  C     -139.928    -169.454      41.304
  O     -139.013    -168.710      41.656
  N     -139.698    -170.386      40.319
  C     -140.609    -171.268      39.820
  O     -140.341    -172.082      38.938
  C     -141.959    -171.192      40.401
  C     -142.200    -170.300      41.364
  O     -141.760    -170.483      48.215
  O     -140.885    -172.460      46.848
  H     -144.531    -169.013      44.095
  H     -141.503    -172.904      47.458
  H     -138.764    -170.410      39.940
  H     -142.710    -171.874      40.014
  H     -143.184    -170.216      41.816
  H     -141.781    -167.529      42.387
  H     -142.477    -169.967      44.084
  H     -142.560    -168.701      45.994
  H     -140.479    -166.868      45.240
  H     -138.949    -168.878      45.717
  H     -140.089    -168.447      47.021
  P     -143.314    -166.237      46.755
  C     -145.865    -166.875      46.875
  O     -144.552    -167.019      47.402
  O     -143.360    -164.744      46.802
  O     -142.071    -166.711      47.671
  H     -141.921    -165.998      48.323
  H     -146.545    -167.475      47.443
  H     -145.876    -167.193      45.853
  H     -146.162    -165.849      46.932

 6  7  8  9  10  11  12  13  14  15  16  26  31  32  33  34  35 0
 6-311+G(2d,p)
 ****
 36  37 0
 6-311+G(2d,p)
 ****
 1  2  3  4  5  17  18  19  20  21  22  23  24  25 0
 3-21G
 ****
 27  28  29  30  38  39  40  41  42  43  44  45 0
 3-21G
 ****


