%nproc=1
%NoSave
%Mem=1900MB
#P OB98/GEN NMR

erre ene a

0 1
  C      362.148      64.390     103.568
  O      361.824      64.498     104.942
  P      360.419      63.913     105.440
  C      359.444      66.274     105.895
  O      359.753      64.992     106.423
  C      359.739      67.375     106.919
  O      359.587      68.674     106.296
  C      358.805      67.340     108.137
  O      359.529      67.772     109.300
  C      357.782      68.409     107.823
  O      357.161      68.906     109.010
  C      358.646      69.429     107.085
  N      356.488      73.991     106.783
  C      357.433      73.524     107.677
  N      357.785      74.366     108.676
  N      357.988      72.348     107.593
  C      357.536      71.612     106.549
  C      356.615      71.972     105.588
  C      356.000      73.273     105.699
  O      355.138      73.733     104.958
  N      356.441      70.973     104.665
  C      357.219      69.993     105.086
  N      357.875      70.320     106.243
  O      360.854      62.725     106.424
  O      359.536      63.406     104.351
  H      357.873      69.292     109.559
  H      360.706      61.865     105.993
  H      356.079      74.906     106.895
  H      357.321      69.029     104.605
  H      359.224      70.047     107.787
  H      356.997      68.001     107.173
  H      357.341      75.262     108.831
  H      358.347      66.365     108.330
  H      358.438      74.032     109.369
  H      360.786      67.286     107.231
  H      358.384      66.306     105.632
  H      360.028      66.446     104.982
  P      359.351      66.857     110.614
  C      357.246      68.100     111.509
  O      358.613      67.786     111.689
  O      360.846      66.734     111.176
  O      358.728      65.529     110.355
  H      360.940      65.921     111.705
  H      356.673      67.680     112.341
  H      356.849      67.706     110.568
  H      357.129      69.186     111.516
  H      363.111      64.823     103.393
  H      361.414      64.907     102.987
  H      362.165      63.358     103.285

 3  4  5  6  7  8  9  10  11  12  23  26  30  31 0
 6-311+G(2d,p)
 ****
 33  35  36  37  38 0
 6-311+G(2d,p)
 ****
 1  2  13  14  15  16  17  18  19  20  21  22  24  25 0
 3-21G
 ****
 27  28  29  32  34  39  40  41  42  43  44  45  46  47  48  49 0
 3-21G
 ****


