%nproc=1
%NoSave
%Mem=1900MB
#P OB98/GEN NMR

erre ene a

0 1
  C      -21.768     -95.802      85.222
  O      -22.531     -96.139      86.371
  P      -23.336     -94.962      87.107
  C      -21.347     -94.672      88.771
  O      -22.742     -94.861      88.597
  C      -20.939     -94.981      90.214
  O      -19.510     -94.759      90.349
  C      -21.632     -94.118      91.278
  O      -21.774     -94.932      92.447
  C      -20.620     -93.016      91.538
  O      -20.814     -92.384      92.800
  C      -19.316     -93.797      91.411
  N      -15.790     -90.714      93.326
  C      -16.844     -91.354      93.955
  N      -16.928     -91.193      95.295
  N      -17.728     -92.086      93.332
  C      -17.504     -92.166      91.997
  C      -16.524     -91.549      91.253
  C      -15.529     -90.775      91.962
  O      -14.534     -90.264      91.459
  N      -16.674     -91.801      89.917
  C      -17.694     -92.632      89.857
  N      -18.201     -92.923      91.098
  O      -24.785     -95.599      87.321
  O      -23.380     -93.653      86.383
  H      -20.877     -93.086      93.482
  H      -25.387     -95.356      86.588
  H      -15.130     -90.181      93.862
  H      -18.103     -93.061      88.956
  H      -19.061     -94.347      92.326
  H      -20.699     -92.248      90.759
  H      -16.264     -90.669      95.843
  H      -22.606     -93.732      90.960
  H      -17.673     -91.677      95.787
  H      -21.122     -96.043      90.404
  H      -21.102     -93.626      88.556
  H      -20.800     -95.309      88.066
  P      -23.129     -95.775      92.617
  C      -24.761     -93.775      92.867
  O      -24.142     -94.891      93.481
  O      -22.700     -96.938      93.633
  O      -23.673     -96.347      91.347
  H      -23.205     -97.748      93.435
  H      -25.679     -93.534      93.409
  H      -25.014     -93.980      91.820
  H      -24.087     -92.914      92.912
  H      -21.290     -96.680      84.841
  H      -21.026     -95.078      85.487
  H      -22.413     -95.393      84.473

 3  4  5  6  7  8  9  10  11  12  23  26  30  31 0
 6-311+G(2d,p)
 ****
 33  35  36  37  38 0
 6-311+G(2d,p)
 ****
 1  2  13  14  15  16  17  18  19  20  21  22  24  25 0
 3-21G
 ****
 27  28  29  32  34  39  40  41  42  43  44  45  46  47  48  49 0
 3-21G
 ****


