%nproc=1
%NoSave
%Mem=1900MB
#P OB98/GEN NMR

erre ene a

0 1
  C       94.598     101.220    -127.067
  O       95.270     102.478    -126.965
  P       95.806     103.225    -128.281
  C       97.608     101.439    -128.623
  O       96.538     102.154    -129.232
  C       98.827     101.271    -129.538
  O       98.453     100.658    -130.796
  C       99.563     102.574    -129.874
  O      100.946     102.222    -129.998
  C       98.974     102.936    -131.225
  O       99.783     103.861    -131.943
  C       98.830     101.549    -131.863
  N       97.856     101.537    -132.951
  C       98.232     102.160    -134.143
  O       99.318     102.738    -134.227
  N       97.351     102.158    -135.197
  C       96.162     101.665    -135.039
  N       95.325     101.713    -136.112
  C       95.691     101.072    -133.770
  C       96.587     101.033    -132.783
  O       96.600     104.463    -128.017
  O       94.466     103.582    -129.090
  H       99.339     104.058    -132.797
  H       94.611     104.396    -129.608
  H       94.683     100.697    -133.677
  H       96.340     100.615    -131.816
  H       99.795     101.202    -132.259
  H       97.989     103.395    -131.088
  H       99.423     103.357    -129.126
  H       99.513     100.575    -129.042
  H       95.677     102.150    -136.955
  H       97.239     100.449    -128.333
  H       94.348     101.462    -136.063
  H       97.901     101.955    -127.702
  P      101.961     102.329    -128.766
  C      102.761     104.731    -129.131
  O      101.989     103.867    -128.322
  O      103.309     101.727    -129.007
  O      101.212     101.605    -127.546
  H      101.863     101.380    -126.857
  H      102.535     105.765    -128.862
  H      102.528     104.581    -130.191
  H      103.825     104.545    -128.963
  H       94.319     100.885    -126.090
  H       95.251     100.502    -127.518
  H       93.721     101.332    -127.670

 3  4  5  6  7  8  9  10  11  12  13  23  27  28  29  30  32 0
 6-311+G(2d,p)
 ****
 34  35 0
 6-311+G(2d,p)
 ****
 1  2  14  15  16  17  18  19  20  21  22  24  25  26 0
 3-21G
 ****
 31  33  36  37  38  39  40  41  42  43  44  45  46 0
 3-21G
 ****


