%nproc=1
%NoSave
%Mem=1900MB
#P OB98/GEN NMR

erre ene a

0 1
  C     -136.722      60.913     416.186
  O     -135.974      62.111     416.133
  H     -137.318      60.909     417.102
  H     -136.060      60.042     416.196
  H     -137.404      60.852     415.329
  P     -134.929      62.308     414.935
  C     -133.460      60.603     413.657
  O     -134.009      60.995     414.909
  C     -132.129      59.858     413.854
  O     -131.121      60.808     414.302
  C     -132.201      58.735     414.900
  O     -131.242      57.731     414.519
  C     -131.736      59.458     416.152
  O     -131.399      58.558     417.179
  C     -130.610      60.326     415.570
  N     -130.222      61.410     416.452
  C     -129.468      61.062     417.575
  O     -129.183      59.881     417.784
  N     -129.094      62.048     418.455
  C     -129.494      63.265     418.262
  N     -129.100      64.196     419.183
  C     -130.340      63.674     417.124
  C     -130.660      62.709     416.265
  O     -134.174      63.599     414.933
  O     -135.821      62.152     413.614
  H     -130.656      57.971     416.896
  H     -135.971      63.030     413.213
  H     -130.667      64.696     417.023
  H     -131.280      62.910     415.394
  H     -129.723      59.718     415.350
  H     -132.536      60.092     416.547
  H     -133.191      58.291     414.991
  H     -131.797      59.481     412.883
  H     -128.525      63.869     419.954
  H     -133.293      61.512     413.070
  H     -129.362      65.168     419.148
  H     -134.169      59.958     413.121
  P     -131.654      56.410     413.714
  C     -132.840      54.156     414.160
  O     -132.290      55.338     414.728
  O     -130.551      55.850     412.860
  O     -132.896      56.838     412.801
  H     -132.892      56.307     411.977
  H     -133.227      53.533     414.939
  H     -132.077      53.628     413.627
  H     -133.630      54.418     413.487

 6  7  8  9  10  11  12  13  14  15  16  26  30  31  32  33  35 0
 6-311+G(2d,p)
 ****
 37  38 0
 6-311+G(2d,p)
 ****
 1  2  3  4  5  17  18  19  20  21  22  23  24  25 0
 3-21G
 ****
 27  28  29  34  36  39  40  41  42  43  44  45  46 0
 3-21G
 ****


