%nproc=1
%NoSave
%Mem=1900MB
#P OB98/GEN NMR

erre ene a

0 1
  C      157.449      82.082     118.014
  O      156.960      82.939     119.028
  P      156.443      82.320     120.413
  C      154.292      83.684     119.984
  O      155.255      83.252     120.952
  C      153.171      84.460     120.661
  O      152.432      83.610     121.560
  C      153.656      85.633     121.511
  O      154.035      86.723     120.691
  C      152.442      85.888     122.394
  O      151.461      86.670     121.695
  C      151.915      84.456     122.625
  N      151.419      84.996     127.667
  C      151.047      85.784     126.636
  N      151.249      85.588     125.317
  C      151.938      84.452     125.114
  C      152.418      83.563     126.065
  C      152.118      83.853     127.405
  N      152.438      83.031     128.465
  N      153.110      82.525     125.451
  C      153.050      82.791     124.170
  N      152.295      83.911     123.905
  O      157.502      82.002     121.409
  O      155.675      80.986     119.965
  H      150.672      86.742     122.267
  H      156.102      80.208     120.384
  H      150.497      86.677     126.910
  H      153.518      82.205     123.388
  H      150.824      84.405     122.556
  H      152.691      86.413     123.310
  H      154.497      85.317     122.137
  H      152.480      84.807     119.878
  H      153.885      82.783     119.502
  H      152.041      83.262     129.361
  H      152.668      82.068     128.259
  H      154.794      84.299     119.234
  P      155.553      87.230     120.681
  C      154.809      89.672     120.985
  O      155.530      88.761     120.183
  O      156.523      86.349     119.973
  O      155.908      87.371     122.240
  H      156.861      87.179     122.365
  H      153.735      89.555     120.791
  H      155.105      90.682     120.735
  H      154.999      89.496     122.048
  H      157.748      82.665     117.168
  H      156.679      81.399     117.723
  H      158.290      81.534     118.385

 3  4  5  6  7  8  9  10  11  12  22  25  29  30  31  32 0
 6-311+G(2d,p)
 ****
 33  36  37 0
 6-311+G(2d,p)
 ****
 1  2  13  14  15  16  17  18  19  20  21  23  24  26 0
 3-21G
 ****
 27  28  34  35  38  39  40  41  42  43  44  45  46  47  48 0
 3-21G
 ****


