%nproc=1
%NoSave
%Mem=1900MB
#P OB98/GEN NMR

erre ene a

0 1
  C       17.253    -895.080     207.362
  O       17.581    -894.260     206.265
  H       17.868    -894.780     208.217
  H       17.462    -896.130     207.140
  H       16.197    -894.960     207.627
  P       17.008    -894.670     204.815
  C       17.877    -897.090     204.639
  O       18.054    -895.740     204.231
  C       17.414    -897.960     203.472
  O       16.121    -897.510     203.000
  C       18.330    -897.890     202.257
  O       19.582    -898.500     202.449
  C       17.416    -898.380     201.132
  O       17.390    -899.790     201.005
  C       16.033    -897.870     201.605
  N       15.548    -896.760     200.787
  C       14.822    -897.120     199.658
  O       14.594    -898.280     199.329
  N       14.381    -896.080     198.882
  C       14.639    -894.760     199.093
  O       14.259    -893.870     198.333
  C       15.451    -894.440     200.290
  C       15.856    -895.440     201.072
  O       16.722    -893.520     203.885
  O       15.723    -895.560     205.154
  H       16.762    -900.000     200.272
  H       15.138    -895.650     204.369
  H       13.833    -896.310     198.067
  H       15.682    -893.410     200.486
  H       16.457    -895.240     201.956
  H       15.291    -898.680     201.539
  H       17.730    -897.970     200.167
  H       18.533    -896.830     202.044
  H       17.305    -899.000     203.823
  H       17.113    -897.100     205.424
  H       18.815    -897.480     205.056
  P       20.966    -897.790     202.087
  C       20.651    -897.830     199.508
  O       21.419    -898.270     200.611
  O       21.998    -897.740     203.174
  O       20.482    -896.280     201.808
  H       21.196    -895.680     202.115
  H       21.067    -898.224     198.604
  H       20.662    -896.761     199.469
  H       19.643    -898.173     199.616

 6  7  8  9  10  11  12  13  14  15  16  26  31  32  33  34  35 0
 6-311+G(2d,p)
 ****
 36  37 0
 6-311+G(2d,p)
 ****
 1  2  3  4  5  17  18  19  20  21  22  23  24  25 0
 3-21G
 ****
 27  28  29  30  38  39  40  41  42  43  44  45 0
 3-21G
 ****


