%nproc=1
%NoSave
%Mem=1900MB
#P OB98/GEN NMR

erre ene a

0 1
  C      205.679    -284.529    -229.911
  O      205.011    -284.270    -231.124
  H      205.047    -285.173    -229.292
  H      205.852    -283.591    -229.371
  H      206.633    -285.037    -230.092
  P      205.853    -283.505    -232.264
  C      205.127    -284.819    -234.382
  O      206.140    -284.589    -233.418
  C      205.062    -286.309    -234.737
  O      204.631    -287.070    -233.577
  C      204.087    -286.644    -235.852
  O      204.657    -286.431    -237.139
  C      203.857    -288.122    -235.593
  O      204.985    -288.888    -236.069
  C      203.795    -288.168    -234.058
  N      199.394    -290.513    -233.130
  C      200.550    -290.989    -233.722
  N      200.521    -292.274    -234.141
  N      201.629    -290.274    -233.903
  C      201.512    -289.004    -233.443
  C      200.419    -288.412    -232.837
  C      199.239    -289.221    -232.639
  O      198.197    -288.854    -232.101
  N      200.673    -287.104    -232.509
  C      201.916    -286.904    -232.924
  N      202.459    -288.025    -233.511
  O      207.290    -283.301    -231.586
  O      205.281    -282.205    -232.724
  H      204.957    -288.855    -237.041
  H      207.659    -282.445    -231.873
  H      198.588    -291.102    -233.031
  H      202.446    -285.964    -232.831
  H      204.211    -289.100    -233.652
  H      202.973    -288.518    -236.102
  H      199.709    -292.865    -234.083
  H      203.127    -286.103    -235.742
  H      201.366    -292.662    -234.548
  H      206.072    -286.641    -234.991
  H      205.359    -284.248    -235.289
  H      204.168    -284.482    -233.984
  P      203.701    -285.872    -238.301
  C      205.561    -284.420    -239.382
  O      204.303    -284.444    -238.714
  O      202.354    -285.483    -237.509
  O      203.438    -286.822    -239.417
  H      201.596    -285.488    -238.120
  H      205.833    -283.407    -239.593
  H      205.489    -284.968    -240.298
  H      206.305    -284.867    -238.757

 6  7  8  9  10  11  12  13  14  15  26  29  33  34 0
 6-311+G(2d,p)
 ****
 36  38  39  40  41 0
 6-311+G(2d,p)
 ****
 1  2  3  4  5  16  17  18  19  20  21  22  23  24  25 0
 3-21G
 ****
 27  28  30  31  32  35  37  42  43  44  45  46  47 0
 3-21G
 ****
 48  49 0
 3-21G
 ****


