%nproc=1
%NoSave
%Mem=1900MB
#P OB98/GEN NMR

erre ene a

0 1
  C      358.504     -25.212    -752.075
  O      359.490     -25.990    -752.723
  H      357.544     -25.373    -752.582
  H      358.754     -24.147    -752.142
  H      358.397     -25.506    -751.029
  P      360.975     -26.017    -752.120
  C      360.739     -28.531    -751.637
  O      361.034     -27.251    -751.093
  C      360.483     -29.545    -750.521
  O      359.417     -29.056    -749.671
  C      360.084     -30.937    -751.029
  O      360.683     -31.916    -750.190
  C      358.572     -30.948    -750.846
  O      358.061     -32.278    -750.680
  C      358.397     -30.073    -749.601
  N      353.973     -30.139    -747.173
  C      355.139     -30.820    -746.907
  N      355.121     -31.668    -745.859
  N      356.237     -30.690    -747.620
  C      356.109     -29.796    -748.636
  C      355.004     -29.053    -748.993
  C      353.798     -29.215    -748.212
  O      352.732     -28.650    -748.397
  N      355.262     -28.276    -750.099
  C      356.526     -28.552    -750.402
  N      357.072     -29.474    -749.551
  O      361.460     -24.719    -751.550
  O      361.886     -26.507    -753.340
  H      357.102     -32.247    -750.887
  H      362.333     -25.752    -753.764
  H      353.155     -30.280    -746.593
  H      357.071     -28.124    -751.224
  H      358.529     -30.636    -748.670
  H      358.090     -30.501    -751.721
  H      354.325     -31.811    -745.254
  H      360.368     -31.109    -752.075
  H      355.983     -32.169    -745.630
  H      361.386     -29.603    -749.898
  H      361.592     -28.855    -752.243
  H      359.852     -28.455    -752.286
  P      362.221     -32.292    -750.413
  C      362.894     -31.175    -748.186
  O      363.120     -31.241    -749.594
  O      362.639     -32.510    -751.833
  O      362.394     -33.637    -749.546
  H      363.082     -34.190    -749.959
  H      363.547     -30.445    -747.754
  H      363.089     -32.132    -747.748
  H      361.877     -30.898    -748.001

 6  7  8  9  10  11  12  13  14  15  26  29  33  34 0
 6-311+G(2d,p)
 ****
 36  38  39  40  41 0
 6-311+G(2d,p)
 ****
 1  2  3  4  5  16  17  18  19  20  21  22  23  24  25 0
 3-21G
 ****
 27  28  30  31  32  35  37  42  43  44  45  46  47 0
 3-21G
 ****
 48  49 0
 3-21G
 ****


