%nproc=1
%NoSave
%Mem=1900MB
#P OB98/GEN NMR

erre ene a

0 1
  C      -51.039     -57.687     -70.094
  O      -52.452     -57.668     -70.154
  H      -50.723     -58.629     -69.640
  H      -50.671     -56.861     -69.479
  H      -50.614     -57.622     -71.098
  P      -53.174     -56.367     -70.744
  C      -53.679     -55.480     -68.372
  O      -53.039     -55.233     -69.617
  C      -54.026     -54.163     -67.683
  O      -52.827     -53.478     -67.274
  C      -54.803     -53.182     -68.560
  O      -56.182     -53.511     -68.578
  C      -54.523     -51.879     -67.832
  O      -55.342     -51.799     -66.649
  C      -53.045     -52.049     -67.436
  N      -50.711     -47.923     -69.246
  C      -51.739     -48.028     -68.329
  N      -52.234     -46.868     -67.849
  N      -52.242     -49.167     -67.928
  C      -51.697     -50.240     -68.545
  C      -50.688     -50.262     -69.481
  C      -50.094     -48.999     -69.867
  O      -49.165     -48.864     -70.658
  N      -50.464     -51.532     -69.949
  C      -51.300     -52.283     -69.257
  N      -52.078     -51.545     -68.396
  O      -54.572     -56.560     -71.247
  O      -52.186     -55.856     -71.895
  H      -55.211     -52.628     -66.153
  H      -52.429     -56.233     -72.761
  H      -50.369     -47.018     -69.523
  H      -51.380     -53.360     -69.336
  H      -52.818     -51.571     -66.477
  H      -54.746     -50.998     -68.437
  H      -51.993     -45.964     -68.227
  H      -54.381     -53.124     -69.569
  H      -53.026     -46.924     -67.219
  H      -54.587     -54.400     -66.770
  H      -52.986     -56.062     -67.756
  H      -54.591     -56.068     -68.520
  P      -57.116     -53.151     -69.835
  C      -58.259     -51.295     -68.443
  O      -57.542     -51.620     -69.621
  O      -58.251     -54.088     -70.060
  O      -56.101     -53.044     -71.063
  H      -55.910     -53.920     -71.483
  H      -58.474     -50.247     -68.434
  H      -57.669     -51.545     -67.586
  H      -59.175     -51.848     -68.419

 6  7  8  9  10  11  12  13  14  15  26  29  33  34 0
 6-311+G(2d,p)
 ****
 36  38  39  40  41 0
 6-311+G(2d,p)
 ****
 1  2  3  4  5  16  17  18  19  20  21  22  23  24  25 0
 3-21G
 ****
 27  28  30  31  32  35  37  42  43  44  45  46  47 0
 3-21G
 ****
 48  49 0
 3-21G
 ****


