%nproc=1
%NoSave
%Mem=1900MB
#P OB98/GEN NMR

erre ene a

0 1
  C       40.630      28.170      29.350
  O       40.831      26.834      29.768
  H       40.215      28.163      28.340
  H       41.583      28.706      29.338
  H       39.927      28.675      30.018
  P       41.424      26.631      31.243
  C       43.797      26.619      30.164
  O       42.948      27.128      31.180
  C       45.219      27.167      30.331
  O       45.906      26.380      31.349
  C       46.072      27.083      29.056
  O       47.032      28.152      29.096
  C       46.783      25.753      29.246
  O       47.862      25.623      28.350
  C       47.102      25.850      30.735
  N       50.800      22.367      31.307
  C       50.785      23.570      30.694
  N       49.767      24.447      30.593
  C       48.677      23.986      31.232
  C       48.544      22.785      31.908
  C       49.673      21.948      31.930
  N       49.689      20.719      32.546
  N       47.271      22.659      32.432
  C       46.649      23.766      32.079
  N       47.456      24.592      31.346
  O       41.547      25.041      31.375
  O       40.616      27.223      32.348
  H       48.278      24.738      28.431
  H       40.757      24.683      31.821
  H       51.716      23.867      30.218
  H       45.622      24.014      32.315
  H       47.917      26.556      30.932
  H       46.105      24.918      29.046
  H       45.487      27.154      28.135
  H       45.165      28.194      30.710
  H       43.395      26.922      29.191
  H       43.819      25.526      30.220
  H       50.534      20.173      32.503
  H       48.851      20.386      32.999
  P       46.779      29.465      28.204
  C       48.171      28.633      26.151
  O       46.917      29.069      26.655
  O       48.126      30.301      28.452
  O       45.579      30.276      28.568
  H       47.941      31.253      28.352
  H       48.079      28.413      25.108
  H       48.479      27.753      26.675
  H       48.899      29.405      26.290

 6  7  8  9  10  11  12  13  14  15  25  28  32  33  34  35 0
 6-311+G(2d,p)
 ****
 36  37  40 0
 6-311+G(2d,p)
 ****
 1  2  3  4  5  16  17  18  19  20  21  22  23  24 0
 3-21G
 ****
 26  27  29  30  31  38  39 41  42  43  44  45  46  47  48 0
 3-21G
 ****


