%nproc=1
%NoSave
%Mem=1900MB
#P OB98/GEN NMR

erre ene a

0 1
  C        9.620    -463.632    -127.601
  O        8.633    -464.503    -128.123
  H       10.206    -463.231    -128.430
  H       10.288    -464.162    -126.919
  H        9.139    -462.798    -127.078
  P        7.824    -465.429    -127.094
  C        5.452    -464.431    -126.917
  O        6.770    -464.450    -126.373
  C        4.403    -464.681    -125.835
  O        4.582    -465.983    -125.241
  C        4.468    -463.707    -124.668
  O        4.135    -462.376    -124.986
  C        3.670    -464.441    -123.603
  O        2.264    -464.252    -123.752
  C        4.044    -465.913    -123.897
  N        4.974    -466.460    -122.915
  C        4.421    -466.850    -121.704
  O        3.226    -466.738    -121.434
  N        5.300    -467.357    -120.783
  C        6.650    -467.457    -120.936
  O        7.390    -467.896    -120.065
  C        7.182    -466.986    -122.228
  C        6.337    -466.518    -123.145
  O        8.665    -466.225    -126.138
  O        6.894    -466.329    -128.036
  H        2.111    -463.292    -123.857
  H        6.531    -467.106    -127.544
  H        4.916    -467.661    -119.902
  H        8.250    -467.039    -122.381
  H        6.702    -466.171    -124.105
  H        3.141    -466.541    -123.897
  H        3.934    -464.116    -122.594
  H        5.507    -463.676    -124.307
  H        3.414    -464.665    -126.308
  H        5.389    -465.229    -127.666
  H        5.272    -463.470    -127.405
  P        4.835    -461.104    -124.334
  C        5.977    -460.389    -126.579
  O        6.133    -460.731    -125.205
  O        4.967    -461.100    -122.844
  O        3.806    -459.924    -124.738
  H        3.814    -459.277    -124.005
  H        6.935    -460.171    -127.003
  H        5.346    -459.529    -126.663
  H        5.533    -461.210    -127.103

 6  7  8  9  10  11  12  13  14  15  16  26  31  32  33  34  35 0
 6-311+G(2d,p)
 ****
 36  37 0
 6-311+G(2d,p)
 ****
 1  2  3  4  5  17  18  19  20  21  22  23  24  25 0
 3-21G
 ****
 27  28  29  30  38  39  40  41  42  43  44  45 0
 3-21G
 ****


