%nproc=1
%NoSave
%Mem=1900MB
#P OB98/GEN NMR

erre ene a

0 1
  C      -12.685     -41.365     -33.883
  O      -11.315     -41.118     -34.226
  P      -10.169     -42.219     -34.010
  C       -8.691     -40.891     -32.371
  O       -8.792     -41.471     -33.669
  C       -7.541     -39.883     -32.289
  O       -7.962     -38.587     -32.757
  C       -6.989     -39.666     -30.883
  O       -6.128     -40.726     -30.516
  C       -6.311     -38.307     -31.037
  O       -5.014     -38.458     -31.640
  C       -7.265     -37.583     -31.994
  N       -8.359     -32.744     -30.752
  C       -7.357     -33.286     -31.477
  N       -7.130     -34.587     -31.759
  C       -8.092     -35.360     -31.228
  C       -9.174     -34.951     -30.463
  C       -9.292     -33.571     -30.224
  N      -10.306     -33.023     -29.473
  N       -9.932     -36.033     -30.071
  C       -9.329     -37.077     -30.606
  N       -8.214     -36.721     -31.313
  O      -10.065     -43.220     -35.114
  O      -10.551     -42.938     -32.631
  H       -4.487     -39.032     -31.056
  H      -10.216     -43.854     -32.633
  H       -6.637     -32.579     -31.883
  H       -9.663     -38.102     -30.512
  H       -6.722     -36.963     -32.716
  H       -6.170     -37.795     -30.081
  H       -7.814     -39.580     -30.167
  H       -6.745     -40.228     -32.962
  H       -8.525     -41.696     -31.646
  H      -10.302     -32.027     -29.321
  H      -10.979     -33.637     -29.037
  H       -9.639     -40.395     -32.137
  P       -6.209     -41.353     -29.045
  C       -3.973     -42.525     -29.504
  O       -5.303     -42.676     -29.045
  O       -7.584     -41.524     -28.491
  O       -5.346     -40.339     -28.153
  H       -5.691     -40.339     -27.241
  H       -3.963     -42.518     -30.597
  H       -3.381     -43.372     -29.148
  H       -3.531     -41.599     -29.126
  H      -13.271     -40.499     -34.110
  H      -12.758     -41.581     -32.838
  H      -13.049     -42.199     -34.446

 3  4  5  6  7  8  9  10  11  12  22  25  29  30  31  32 0
 6-311+G(2d,p)
 ****
 33  36  37 0
 6-311+G(2d,p)
 ****
 1  2  13  14  15  16  17  18  19  20  21  23  24  26 0
 3-21G
 ****
 27  28  34  35  38  39  40  41  42  43  44  45  46  47  48 0
 3-21G
 ****


