%nproc=1
%NoSave
%Mem=1900MB
#P OB98/GEN NMR

erre ene a

0 1
  C      -98.698     857.398    -129.866
  O      -99.812     857.125    -129.008
  P     -100.080     858.142    -127.799
  C     -102.571     857.469    -127.524
  O     -101.295     857.578    -126.913
  C     -102.677     856.197    -128.380
  O     -102.332     855.019    -127.596
  C     -104.077     855.957    -128.948
  O     -103.944     855.265    -130.196
  C     -104.688     855.008    -127.930
  O     -105.815     854.316    -128.464
  C     -103.473     854.138    -127.605
  N     -105.123     849.935    -125.353
  C     -105.181     850.319    -126.683
  N     -105.730     849.434    -127.541
  N     -104.736     851.466    -127.124
  C     -104.182     852.234    -126.156
  C     -104.072     851.972    -124.809
  C     -104.591     850.709    -124.328
  O     -104.577     850.325    -123.162
  N     -103.471     853.011    -124.144
  C     -103.225     853.901    -125.091
  N     -103.606     853.463    -126.328
  O     -100.719     859.414    -128.537
  O      -98.852     858.517    -127.038
  H     -106.133     853.697    -127.769
  H     -100.074     860.143    -128.543
  H     -105.484     849.045    -125.065
  H     -102.776     854.870    -124.933
  H     -103.302     853.363    -128.361
  H     -105.015     855.570    -127.048
  H     -106.042     848.515    -127.269
  H     -104.677     856.858    -129.096
  H     -105.746     849.669    -128.525
  H     -101.952     856.267    -129.199
  H     -102.767     858.344    -128.153
  H     -103.342     857.488    -126.742
  P     -104.743     855.864    -131.445
  C     -103.481     855.049    -133.559
  O     -104.540     854.828    -132.650
  O     -103.868     857.129    -131.883
  O     -106.165     856.241    -131.160
  H     -104.425     857.783    -132.349
  H     -102.662     854.350    -133.332
  H     -103.102     856.075    -133.510
  H     -103.838     854.850    -134.569
  H      -98.638     856.645    -130.623
  H      -97.796     857.398    -129.290
  H      -98.828     858.356    -130.325

 3  4  5  6  7  8  9  10  11  12  23  26  30  31 0
 6-311+G(2d,p)
 ****
 33  35  36  37  38 0
 6-311+G(2d,p)
 ****
 1  2  13  14  15  16  17  18  19  20  21  22  24  25 0
 3-21G
 ****
 27  28  29  32  34  39  40  41  42  43  44  45  46  47  48  49 0
 3-21G
 ****


