%nproc=1
%NoSave
%Mem=1900MB
#P OB98/GEN NMR

erre ene a

0 1
  C      775.521    -339.349    -891.550
  O      775.547    -340.403    -890.610
  H      775.624    -338.393    -891.020
  H      774.582    -339.346    -892.100
  H      776.364    -339.462    -892.260
  P      775.455    -341.896    -891.200
  C      777.906    -342.097    -892.090
  O      776.525    -341.957    -892.400
  C      778.711    -342.464    -893.340
  O      778.161    -343.703    -893.900
  C      778.629    -341.402    -894.460
  O      779.859    -341.438    -895.210
  C      777.480    -341.942    -895.320
  O      777.491    -341.326    -896.580
  C      777.804    -343.426    -895.270
  N      775.679    -345.834    -899.230
  C      776.850    -345.174    -899.110
  N      777.363    -344.569    -898.010
  C      776.513    -344.729    -896.960
  C      775.296    -345.358    -896.940
  C      774.868    -345.941    -898.170
  N      773.674    -346.611    -898.300
  N      774.720    -345.319    -895.690
  C      775.598    -344.607    -894.950
  N      776.690    -344.251    -895.700
  O      774.050    -341.902    -891.960
  O      775.561    -343.002    -890.190
  H      778.351    -341.451    -897.020
  H      773.348    -342.232    -891.340
  H      777.467    -345.130    -900.000
  H      775.480    -344.370    -893.900
  H      778.674    -343.691    -895.910
  H      776.501    -341.724    -894.840
  H      778.455    -340.378    -894.080
  H      779.762    -342.654    -893.060
  H      778.029    -342.881    -891.320
  H      778.285    -341.142    -891.670
  H      773.446    -346.977    -899.210
  H      773.034    -346.668    -897.500
  P      780.759    -340.139    -895.310
  C      781.797    -340.215    -892.910
  O      780.997    -339.489    -893.840
  O      779.724    -339.054    -895.950
  O      781.986    -340.244    -896.160
  H      780.165    -338.560    -896.670
  H      781.864    -339.667    -891.993
  H      782.778    -340.354    -893.315
  H      781.350    -341.169    -892.723

 6  7  8  9  10  11  12  13  14  15  25  28  32  33  34  35 0
 6-311+G(2d,p)
 ****
 36  37  40 0
 6-311+G(2d,p)
 ****
 1  2  3  4  5  16  17  18  19  20  21  22  23  24 0
 3-21G
 ****
 26  27  29  30  31  38  39 41  42  43  44  45  46  47  48 0
 3-21G
 ****


