%nproc=1
%NoSave
%Mem=1900MB
#P OB98/GEN NMR

erre ene a

0 1
  C        7.742     620.922    -178.006
  O        8.310     619.657    -178.265
  P        7.907     618.375    -177.392
  C       10.245     617.985    -176.413
  O        9.211     617.453    -177.227
  C       11.592     617.339    -176.736
  O       11.549     615.932    -176.395
  C       12.010     617.455    -178.208
  O       13.424     617.670    -178.237
  C       11.670     616.087    -178.768
  O       12.401     615.787    -179.949
  C       11.986     615.198    -177.558
  N       11.338     613.899    -177.644
  C       12.139     612.777    -177.420
  O       13.357     612.899    -177.299
  N       11.535     611.540    -177.357
  C       10.281     611.425    -177.677
  N        9.708     610.194    -177.533
  C        9.470     612.559    -178.161
  C       10.035     613.758    -178.080
  O        6.689     617.645    -177.856
  O        7.692     618.959    -175.911
  H        6.813     618.685    -175.586
  H       13.351     615.693    -179.717
  H        8.469     612.389    -178.533
  H        9.508     614.657    -178.377
  H       13.067     615.048    -177.462
  H       10.597     616.042    -179.010
  H       11.508     618.279    -178.727
  H       12.354     617.805    -176.092
  H       10.290     609.451    -177.167
  H        9.992     617.783    -175.366
  H        8.699     610.077    -177.452
  H       10.298     619.073    -176.534
  P       14.057     618.419    -179.512
  C       15.978     616.674    -179.634
  O       15.613     618.039    -179.583
  O       14.108     619.942    -179.006
  O       13.277     618.337    -180.788
  H       14.090     620.539    -179.781
  H       17.067     616.602    -179.609
  H       15.617     616.214    -180.568
  H       15.568     616.131    -178.776
  H        8.139     621.639    -178.694
  H        7.976     621.220    -177.005
  H        6.680     620.867    -178.122

 3  4  5  6  7  8  9  10  11  12  13  24  27  28  29  30  32 0
 6-311+G(2d,p)
 ****
 34  35 0
 6-311+G(2d,p)
 ****
 1  2  14  15  16  17  18  19  20  21  22  23  25  26 0
 3-21G
 ****
 31  33  36  37  38  39  40  41  42  43  44  45  46 0
 3-21G
 ****


