%nproc=1
%NoSave
%Mem=1900MB
#P OB98/GEN NMR

erre ene a

0 1
  C       -3.091      93.983     417.400
  O       -2.247      93.743     418.507
  H       -3.234      95.057     417.261
  H       -2.624      93.570     416.503
  H       -4.058      93.496     417.550
  P       -2.737      94.309     419.926
  C       -0.447      95.281     420.659
  O       -1.455      94.309     420.898
  C        0.847      94.872     421.359
  O        0.620      94.904     422.790
  C        1.362      93.471     420.986
  O        2.687      93.556     420.457
  C        1.420      92.726     422.311
  O        2.575      91.900     422.441
  C        1.406      93.843     423.348
  N        1.950      90.471     427.128
  C        2.835      90.955     426.229
  N        2.654      91.929     425.315
  C        1.414      92.440     425.405
  C        0.413      92.068     426.285
  C        0.713      91.018     427.169
  N       -0.205      90.488     428.047
  N       -0.732      92.816     426.069
  C       -0.438      93.594     425.049
  N        0.841      93.389     424.602
  O       -3.644      93.121     420.501
  O       -3.486      95.597     419.869
  H        2.580      91.303     421.670
  H       -4.487      93.483     420.831
  H        3.816      90.490     426.238
  H       -1.119      94.284     424.567
  H        2.412      94.233     423.545
  H        0.530      92.090     422.400
  H        0.710      92.956     420.274
  H        1.611      95.627     421.137
  H       -0.772      96.250     421.052
  H        0.059      89.663     428.559
  H       -1.160      90.816     428.006
  H       -0.293      95.376     419.579
  P        2.848      93.321     418.873
  C        5.326      92.579     419.161
  O        4.407      93.457     418.523
  O        2.212      94.653     418.249
  O        2.172      92.090     418.371
  H        1.868      94.470     417.354
  H        6.318      92.795     418.824
  H        5.079      91.567     418.918
  H        5.272      92.715     420.221

 6  7  8  9  10  11  12  13  14  15  25  28  32  33  34  35 0
 6-311+G(2d,p)
 ****
 36  39  40 0
 6-311+G(2d,p)
 ****
 1  2  3  4  5  16  17  18  19  20  21  22  23  24 0
 3-21G
 ****
 26  27  29  30  31  37  38  41  42  43  44  45  46  47  48 0
 3-21G
 ****


