%nproc=1
%NoSave
%Mem=1900MB
#P OB98/GEN NMR

erre ene a

0 1
  C      -24.238    -172.214     483.719
  O      -25.612    -172.044     483.428
  H      -23.944    -171.469     484.462
  H      -23.640    -172.064     482.818
  H      -24.047    -173.213     484.128
  P      -26.343    -173.127     482.500
  C      -25.230    -172.315     480.314
  O      -26.445    -172.485     481.034
  C      -25.448    -172.577     478.817
  O      -25.942    -173.938     478.652
  C      -26.481    -171.640     478.154
  O      -26.087    -171.487     476.781
  C      -27.748    -172.471     478.278
  O      -28.803    -171.964     477.510
  C      -27.177    -173.846     477.906
  N      -28.044    -174.982     478.203
  C      -29.128    -175.201     477.356
  O      -29.408    -174.514     476.380
  N      -29.921    -176.272     477.679
  C      -29.736    -177.132     478.720
  O      -30.459    -178.093     478.942
  C      -28.576    -176.844     479.581
  C      -27.790    -175.799     479.282
  O      -27.618    -173.683     483.037
  O      -25.235    -174.272     482.309
  H      -25.436    -175.023     482.897
  H      -29.569    -172.567     477.582
  H      -30.706    -176.452     477.077
  H      -28.399    -177.494     480.427
  H      -26.924    -175.570     479.892
  H      -26.910    -173.866     476.844
  H      -28.096    -172.458     479.315
  H      -26.532    -170.658     478.632
  H      -24.478    -172.524     478.305
  H      -24.495    -173.023     480.710
  H      -24.860    -171.297     480.466
  P      -25.361    -170.175     476.207
  C      -27.400    -169.166     474.962
  O      -26.108    -169.749     474.852
  O      -23.879    -170.313     476.069
  O      -25.742    -169.001     477.232
  H      -25.048    -168.314     477.211
  H      -27.771    -168.935     473.985
  H      -27.338    -168.269     475.541
  H      -28.063    -169.855     475.442

 6  7  8  9  10  11  12  13  14  15  16  27  31  32  33  34  35 0
 6-311+G(2d,p)
 ****
 36  37 0
 6-311+G(2d,p)
 ****
 1  2  3  4  5  17  18  19  20  21  22  23  24  25 0
 3-21G
 ****
 26  28  29  30  38  39  40  41  42  43  44  45 0
 3-21G
 ****


