%nproc=1
%NoSave
%Mem=1900MB
#P OB98/GEN NMR

erre ene a

0 1
  C       27.972      25.392      -8.795
  O       27.947      24.369      -9.770
  H       28.918      25.933      -8.882
  H       27.903      24.970      -7.790
  H       27.152      26.096      -8.961
  P       26.692      23.375      -9.800
  C       24.137      23.757      -9.934
  O       25.396      24.274      -9.518
  C       23.095      23.931      -8.832
  O       23.485      23.198      -7.653
  C       22.902      25.373      -8.378
  O       22.157      26.101      -9.333
  C       22.214      25.155      -7.041
  O       20.823      24.848      -7.221
  C       22.980      23.921      -6.505
  N       24.065      24.261      -5.590
  C       23.759      24.202      -4.225
  O       22.628      23.892      -3.856
  N       24.745      24.515      -3.321
  C       25.935      24.814      -3.735
  N       26.865      25.109      -2.788
  C       26.307      24.854      -5.162
  C       25.331      24.581      -6.026
  O       26.796      22.153      -8.941
  O       26.538      22.996     -11.348
  H       20.785      24.154      -7.909
  H       27.012      22.166     -11.545
  H       27.315      25.100      -5.462
  H       25.521      24.588      -7.094
  H       22.294      23.242      -5.981
  H       22.267      26.034      -6.399
  H       23.873      25.846      -8.194
  H       22.150      23.501      -9.189
  H       26.568      25.049      -1.820
  H       24.282      22.694     -10.151
  H       27.852      25.195      -2.982
  H       23.800      24.253     -10.851
  P       22.312      27.689      -9.486
  C       24.308      29.231      -9.983
  O       23.891      27.977      -9.466
  O       21.512      28.500      -8.525
  O       21.933      27.959     -11.017
  H       20.951      27.925     -11.140
  H       25.373      29.307      -9.917
  H       23.858      30.018      -9.415
  H       24.007      29.313     -11.007

 6  7  8  9  10  11  12  13  14  15  16  26  30  31  32  33  35 0
 6-311+G(2d,p)
 ****
 37  38 0
 6-311+G(2d,p)
 ****
 1  2  3  4  5  17  18  19  20  21  22  23  24  25 0
 3-21G
 ****
 27  28  29  34  36  39  40  41  42  43  44  45  46 0
 3-21G
 ****


