%nproc=1
%NoSave
%Mem=1900MB
#P OB98/GEN NMR

erre ene a

0 1
  C     -120.667     244.117    -229.782
  O     -119.862     245.076    -230.437
  H     -121.509     244.609    -229.288
  H     -121.055     243.415    -230.525
  H     -120.075     243.565    -229.048
  P     -119.214     246.213    -229.508
  C     -120.512     248.380    -230.070
  O     -120.382     247.272    -229.191
  C     -121.784     249.159    -229.746
  O     -121.651     249.709    -228.410
  C     -122.073     250.321    -230.712
  O     -123.425     250.257    -231.184
  C     -121.916     251.565    -229.855
  O     -122.814     252.607    -230.222
  C     -122.185     251.039    -228.450
  N     -122.999     254.954    -225.290
  C     -123.857     254.104    -225.900
  N     -123.573     253.022    -226.651
  C     -122.243     252.829    -226.722
  C     -121.249     253.595    -226.136
  C     -121.672     254.718    -225.405
  N     -120.797     255.615    -224.830
  N     -119.997     253.093    -226.437
  C     -120.234     252.064    -227.232
  N     -121.573     251.876    -227.442
  O     -118.249     247.003    -230.515
  O     -118.467     245.696    -228.324
  H     -122.455     253.439    -229.862
  H     -117.331     246.928    -230.191
  H     -124.911     254.327    -225.769
  H     -119.476     251.455    -227.710
  H     -123.260     250.974    -228.239
  H     -120.889     251.938    -229.954
  H     -121.390     250.337    -231.567
  H     -122.628     248.460    -229.723
  H     -120.567     248.022    -231.106
  H     -121.183     256.454    -224.426
  H     -119.811     255.504    -225.008
  H     -119.631     249.024    -229.966
  P     -123.645     249.542    -232.608
  C     -123.404     251.658    -234.101
  O     -122.861     250.397    -233.722
  O     -125.191     249.823    -232.921
  O     -123.349     248.081    -232.601
  H     -125.659     248.981    -233.070
  H     -122.779     252.107    -234.845
  H     -123.454     252.297    -233.244
  H     -124.387     251.518    -234.499

 6  7  8  9  10  11  12  13  14  15  25  28  32  33  34  35 0
 6-311+G(2d,p)
 ****
 36  39  40 0
 6-311+G(2d,p)
 ****
 1  2  3  4  5  16  17  18  19  20  21  22  23  24 0
 3-21G
 ****
 26  27  29  30  31  37  38  41  42  43  44  45  46  47  48 0
 3-21G
 ****


