%nproc=1
%NoSave
%Mem=1900MB
#P OB98/GEN NMR

erre ene a

0 1
  C      312.036     325.394     223.034
  O      313.322     324.848     222.826
  H      311.338     325.015     222.279
  H      311.679     325.094     224.024
  H      312.075     326.486     222.987
  P      314.012     325.146     221.406
  C      314.956     323.524     219.600
  O      314.000     323.738     220.631
  C      315.272     322.035     219.507
  O      315.867     321.574     220.743
  C      314.044     321.160     219.293
  O      313.649     321.107     217.928
  C      314.563     319.814     219.768
  O      315.414     319.237     218.759
  C      315.392     320.221     220.995
  N      315.203     318.371     225.763
  C      316.124     318.246     224.785
  N      316.110     318.785     223.548
  C      315.011     319.535     223.373
  C      313.990     319.761     224.280
  C      314.111     319.136     225.531
  N      313.160     319.233     226.519
  N      313.015     320.568     223.724
  C      313.452     320.840     222.511
  N      314.637     320.212     222.238
  O      315.561     325.341     221.767
  O      313.445     326.284     220.628
  H      314.903     319.233     217.924
  H      316.037     325.745     221.016
  H      316.986     317.625     225.019
  H      312.944     321.472     221.791
  H      316.268     319.581     221.142
  H      313.764     319.095     219.963
  H      313.209     321.470     219.934
  H      316.008     321.886     218.707
  H      315.870     324.079     219.841
  H      313.263     318.630     227.321
  H      312.282     319.678     226.305
  H      314.555     323.885     218.652
  P      312.204     320.485     217.599
  C      311.158     318.103     217.661
  O      312.329     318.900     217.836
  O      312.114     320.614     216.006
  O      311.067     321.160     218.288
  H      311.195     320.760     215.721
  H      311.393     317.077     217.851
  H      310.802     318.207     216.657
  H      310.400     318.428     218.343

 6  7  8  9  10  11  12  13  14  15  25  28  32  33  34  35 0
 6-311+G(2d,p)
 ****
 36  39  40 0
 6-311+G(2d,p)
 ****
 1  2  3  4  5  16  17  18  19  20  21  22  23  24 0
 3-21G
 ****
 26  27  29  30  31  37  38  41  42  43  44  45  46  47 0
 3-21G
 ****
 48 0
 3-21G
 ****


