%nproc=1
%NoSave
%Mem=1900MB
#P OB98/GEN NMR

erre ene a

0 1
  C      -74.257    -159.251      78.404
  O      -74.612    -158.634      79.648
  P      -75.388    -157.228      79.547
  C      -77.119    -157.715      81.422
  O      -76.030    -156.910      80.986
  C      -77.752    -157.171      82.704
  O      -76.915    -157.518      83.834
  C      -77.938    -155.650      82.734
  O      -79.166    -155.351      83.415
  C      -76.801    -155.174      83.618
  O      -77.066    -153.900      84.199
  C      -76.728    -156.327      84.616
  N      -74.524    -155.859      89.143
  C      -75.863    -155.860      88.810
  N      -76.737    -155.689      89.826
  N      -76.307    -156.015      87.591
  C      -75.322    -156.209      86.681
  C      -73.961    -156.239      86.889
  C      -73.484    -156.022      88.237
  O      -72.308    -155.958      88.588
  N      -73.279    -156.458      85.716
  C      -74.225    -156.551      84.803
  N      -75.479    -156.399      85.338
  O      -76.649    -157.574      78.625
  O      -74.568    -156.130      78.959
  H      -76.249    -153.615      84.650
  H      -76.665    -156.984      77.848
  H      -74.236    -155.715      90.095
  H      -74.060    -156.702      83.746
  H      -77.542    -156.273      85.348
  H      -75.885    -155.096      83.021
  H      -76.466    -155.629      90.795
  H      -77.934    -155.174      81.748
  H      -77.725    -155.733      89.608
  H      -78.715    -157.674      82.850
  H      -76.766    -158.735      81.601
  H      -77.865    -157.757      80.621
  P      -80.364    -154.784      82.512
  C      -82.081    -156.596      83.241
  O      -81.715    -155.230      83.247
  O      -80.317    -155.713      81.209
  O      -80.246    -153.333      82.181
  H      -80.677    -155.234      80.440
  H      -81.272    -157.240      82.886
  H      -82.950    -156.728      82.592
  H      -82.348    -156.895      84.258
  H      -73.749    -160.173      78.595
  H      -73.614    -158.598      77.853
  H      -75.143    -159.443      77.835

 3  4  5  6  7  8  9  10  11  12  23  26  30  31  33  0
 6-311+G(2d,p)
 ****
 35  36  37  38 0
 6-311+G(2d,p)
 ****
 1  2  13  14  15  16  17  18  19  20  21  22  24  25  27  28  29 0
 3-21G
 ****
 32  34  39  40  41  42  43  44  45  46  47  48  49 0
 3-21G
 ****


