%nproc=1
%NoSave
%Mem=1900MB
#P OB98/GEN NMR

erre ene a

0 1
  C     -366.533    -102.591    -655.114
  O     -365.403    -103.145    -655.750
  H     -366.397    -101.509    -655.049
  H     -366.635    -102.986    -654.098
  H     -367.440    -102.794    -655.691
  P     -365.317    -104.738    -655.939
  C     -363.826    -105.128    -653.879
  O     -365.109    -105.339    -654.456
  C     -363.832    -105.425    -652.382
  O     -364.244    -106.803    -652.162
  C     -362.465    -105.236    -651.705
  O     -362.627    -104.488    -650.497
  C     -362.029    -106.655    -651.372
  O     -361.103    -106.714    -650.289
  C     -363.390    -107.323    -651.124
  N     -363.297    -108.775    -651.147
  C     -362.678    -109.376    -650.041
  O     -362.249    -108.681    -649.119
  N     -362.505    -110.738    -650.036
  C     -362.883    -111.433    -651.065
  N     -362.653    -112.776    -651.010
  C     -363.508    -110.844    -652.268
  C     -363.696    -109.524    -652.245
  O     -364.309    -105.195    -656.952
  O     -366.810    -105.199    -656.295
  H     -360.842    -107.647    -650.156
  H     -366.778    -106.059    -656.765
  H     -363.792    -111.472    -653.096
  H     -364.150    -108.997    -653.076
  H     -363.807    -107.010    -650.154
  H     -361.549    -107.100    -652.253
  H     -361.741    -104.733    -652.341
  H     -364.600    -104.801    -651.907
  H     -362.206    -113.142    -650.169
  H     -363.525    -104.088    -654.065
  H     -362.880    -113.413    -651.760
  H     -363.114    -105.802    -654.380
  P     -362.599    -102.883    -650.644
  C     -360.117    -102.958    -651.412
  O     -361.430    -102.500    -651.684
  O     -362.028    -102.389    -649.223
  O     -363.937    -102.294    -650.933
  H     -362.743    -101.953    -648.720
  H     -359.456    -102.627    -652.186
  H     -360.113    -104.027    -651.373
  H     -359.790    -102.566    -650.472

 6  7  8  9  10  11  12  13  14  15  16  26  30  31  32  33  35 0
 6-311+G(2d,p)
 ****
 37  38 0
 6-311+G(2d,p)
 ****
 1  2  3  4  5  17  18  19  20  21  22  23  24  25 0
 3-21G
 ****
 27  28  29  34  36  39  40  41  42  43  44  45  46 0
 3-21G
 ****


