%nproc=1
%NoSave
%Mem=1900MB
#P OB98/GEN NMR

erre ene a

0 1
  C      333.841    -502.369    -358.661
  O      332.709    -501.574    -358.980
  H      334.689    -501.703    -358.473
  H      334.093    -503.016    -359.500
  H      333.654    -502.968    -357.767
  P      331.301    -502.300    -359.208
  C      330.418    -501.729    -356.859
  O      330.777    -502.767    -357.759
  C      328.952    -501.858    -356.456
  O      328.808    -502.987    -355.554
  C      328.396    -500.618    -355.744
  O      327.046    -500.413    -356.164
  C      328.426    -501.008    -354.277
  O      327.449    -500.303    -353.511
  C      328.173    -502.518    -354.355
  N      327.490    -503.308    -349.407
  C      326.715    -502.607    -350.319
  N      325.605    -502.009    -349.831
  N      327.009    -502.509    -351.589
  C      328.135    -503.165    -351.929
  C      328.983    -503.890    -351.131
  C      328.664    -503.982    -349.731
  O      329.317    -504.582    -348.879
  N      330.048    -504.389    -351.858
  C      329.836    -503.967    -353.085
  N      328.697    -503.213    -353.187
  O      331.293    -503.378    -360.242
  O      330.308    -501.102    -359.591
  H      327.588    -500.552    -352.567
  H      330.171    -501.061    -360.552
  H      327.223    -503.349    -348.444
  H      330.468    -504.166    -353.937
  H      327.102    -502.748    -354.409
  H      329.415    -500.796    -353.852
  H      325.312    -502.064    -348.872
  H      328.982    -499.714    -355.940
  H      325.008    -501.508    -350.483
  H      328.359    -502.090    -357.348
  H      330.584    -500.764    -357.360
  H      331.059    -501.781    -355.970
  P      326.755    -499.428    -357.391
  C      327.024    -501.353    -359.081
  O      327.447    -500.047    -358.703
  O      327.033    -497.987    -357.142
  O      325.193    -499.668    -357.675
  H      324.803    -498.843    -358.035
  H      327.550    -501.657    -359.962
  H      325.972    -501.344    -359.279
  H      327.232    -502.039    -358.287

 6  7  8  9  10  11  12  13  14  15  26  29  33  34 0
 6-311+G(2d,p)
 ****
 36  38  39  40  41 0
 6-311+G(2d,p)
 ****
 1  2  3  4  5  16  17  18  19  20  21  22  23  24  25 0
 3-21G
 ****
 27  28  30  31  32  35  37  42  43  44  45  46  47 0
 3-21G
 ****
 48  49 0
 3-21G
 ****


