%nproc=1
%NoSave
%Mem=1900MB
#P OB98/GEN NMR

erre ene a

0 1
  C      377.625     -94.610    -573.789
  O      377.398     -93.478    -572.971
  H      378.071     -95.398    -573.180
  H      378.319     -94.353    -574.597
  H      376.685     -94.977    -574.212
  P      376.580     -92.261    -573.639
  C      378.309     -90.311    -573.287
  O      377.689     -91.231    -574.171
  C      378.625     -89.001    -574.013
  O      379.411     -89.302    -575.196
  C      377.382     -88.221    -574.459
  O      377.652     -86.823    -574.339
  C      377.254     -88.588    -575.933
  O      376.513     -87.607    -576.659
  C      378.730     -88.729    -576.332
  N      378.904     -89.552    -577.528
  C      379.483     -88.928    -578.640
  O      379.805     -87.731    -578.590
  N      379.645     -89.644    -579.806
  C      379.200     -90.869    -579.865
  N      379.373     -91.515    -581.056
  C      378.555     -91.546    -578.741
  C      378.445     -90.841    -577.609
  O      375.976     -91.535    -572.344
  O      375.562     -92.680    -574.648
  H      376.518     -87.854    -577.609
  H      376.620     -91.427    -571.624
  H      378.184     -92.563    -578.844
  H      377.974     -91.272    -576.722
  H      379.169     -87.741    -576.531
  H      376.736     -89.549    -576.031
  H      376.495     -88.474    -573.877
  H      379.257     -88.380    -573.359
  H      379.801     -90.995    -581.809
  H      379.234     -90.734    -572.881
  H      379.025     -92.446    -581.240
  H      377.622     -90.132    -572.457
  P      377.010     -85.996    -573.130
  C      374.722     -86.143    -574.343
  O      375.417     -86.225    -573.104
  O      377.442     -84.571    -573.015
  O      377.503     -86.831    -571.841
  H      377.750     -86.185    -571.149
  H      373.679     -86.314    -574.179
  H      375.103     -86.883    -575.016
  H      374.861     -85.170    -574.766

 6  7  8  9  10  11  12  13  14  15  16  26  30  31  32  33  35 0
 6-311+G(2d,p)
 ****
 37  38 0
 6-311+G(2d,p)
 ****
 1  2  3  4  5  17  18  19  20  21  22  23  24  25 0
 3-21G
 ****
 27  28  29  34  36  39  40  41  42  43  44  45  46 0
 3-21G
 ****


