%nproc=1
%NoSave
%Mem=1900MB
#P OB98/GEN NMR

erre ene a

0 1
  C      295.255    -175.494     236.147
  O      295.006    -174.840     237.373
  P      295.355    -175.479     238.793
  C      292.805    -175.525     239.309
  O      294.045    -176.231     239.342
  C      291.629    -176.403     238.860
  O      291.986    -177.106     237.650
  C      291.335    -177.476     239.912
  O      290.536    -177.167     241.037
  C      290.892    -178.696     239.119
  O      289.472    -178.834     239.073
  C      291.458    -178.440     237.721
  N      292.495    -183.035     235.850
  C      291.301    -182.341     235.832
  N      290.215    -183.039     235.439
  N      291.191    -181.089     236.195
  C      292.347    -180.552     236.654
  C      293.591    -181.136     236.705
  C      293.709    -182.507     236.264
  O      294.732    -183.187     236.341
  N      294.514    -180.319     237.299
  C      293.824    -179.251     237.649
  N      292.496    -179.364     237.315
  O      296.142    -174.629     239.740
  O      296.297    -176.717     238.363
  H      289.131    -178.743     239.978
  H      296.970    -176.831     239.059
  H      292.506    -184.024     235.634
  H      294.228    -178.394     238.172
  H      290.663    -178.497     236.970
  H      291.273    -179.614     239.581
  H      290.239    -184.039     235.298
  H      292.304    -177.758     240.349
  H      289.305    -182.616     235.579
  H      290.759    -175.790     238.600
  H      292.935    -174.673     238.631
  H      292.591    -175.118     240.300
  P      291.030    -177.051     242.552
  C      289.274    -178.813     243.147
  O      290.611    -178.389     243.328
  O      290.064    -175.949     243.201
  O      292.459    -176.649     242.722
  H      290.491    -175.558     243.989
  H      289.019    -179.529     243.933
  H      289.170    -179.304     242.173
  H      288.580    -177.967     243.199
  H      294.937    -174.869     235.339
  H      294.714    -176.417     236.119
  H      296.303    -175.692     236.055

 3  4  5  6  7  8  9  10  11  12  23  26  30  31 0
 6-311+G(2d,p)
 ****
 33  35  36  37  38 0
 6-311+G(2d,p)
 ****
 1  2  13  14  15  16  17  18  19  20  21  22  24  25 0
 3-21G
 ****
 27  28  29  32  34  39  40  41  42  43  44  45  46  47  48  49 0
 3-21G
 ****


