%nproc=1
%NoSave
%Mem=1900MB
#P OB98/GEN NMR

erre ene a

0 1
  C      797.177    -648.955    -245.132
  O      797.185    -647.841    -244.254
  H      797.789    -648.715    -246.003
  H      796.162    -649.169    -245.467
  H      797.599    -649.834    -244.634
  P      796.346    -647.940    -242.891
  C      795.940    -646.315    -240.923
  O      796.797    -646.683    -242.001
  C      796.767    -645.757    -239.773
  O      797.508    -646.808    -239.120
  C      797.802    -644.707    -240.195
  O      797.182    -643.438    -240.363
  C      798.751    -644.765    -239.019
  O      798.182    -644.058    -237.896
  C      798.798    -646.275    -238.728
  N      803.728    -647.492    -238.853
  C      803.031    -646.671    -237.975
  N      803.771    -646.045    -237.040
  N      801.749    -646.457    -238.053
  C      801.147    -647.087    -239.086
  C      801.733    -647.915    -240.027
  C      803.144    -648.182    -239.917
  O      803.793    -648.925    -240.652
  N      800.819    -648.322    -240.969
  C      799.693    -647.768    -240.576
  N      799.843    -647.003    -239.447
  O      796.427    -649.252    -242.161
  O      794.850    -647.580    -243.321
  H      798.798    -644.180    -237.157
  H      794.344    -648.387    -243.545
  H      804.727    -647.601    -238.767
  H      798.727    -647.908    -241.082
  H      798.933    -646.495    -237.665
  H      799.723    -644.312    -239.227
  H      804.777    -645.945    -237.118
  H      798.341    -645.011    -241.098
  H      803.296    -645.404    -236.417
  H      796.073    -645.340    -239.028
  H      795.401    -647.211    -240.602
  H      795.219    -645.562    -241.255
  P      797.811    -642.327    -241.334
  C      796.967    -640.065    -242.265
  O      796.646    -641.226    -241.508
  O      798.360    -642.863    -242.616
  O      798.878    -641.562    -240.438
  H      799.780    -641.969    -240.456
  H      796.115    -639.419    -242.305
  H      797.244    -640.352    -243.258
  H      797.783    -639.551    -241.801

 6  7  8  9  10  11  12  13  14  15  26  29  33  34 0
 6-311+G(2d,p)
 ****
 36  38  39  40  41 0
 6-311+G(2d,p)
 ****
 1  2  3  4  5  16  17  18  19  20  21  22  23  24  25 0
 3-21G
 ****
 27  28  30  31  32  35  37  42  43  44  45  46  47 0
 3-21G
 ****
 48  49 0
 3-21G
 ****


