%nproc=1
%NoSave
%Mem=1900MB
#P OB98/GEN NMR

erre ene a

0 1
  C     -103.500     388.829    -147.296
  O     -103.214     390.029    -146.556
  P     -103.501     391.416    -147.317
  C     -101.478     392.938    -146.699
  O     -102.834     392.590    -146.456
  C     -101.141     394.260    -145.999
  O     -101.909     395.363    -146.532
  C     -101.436     394.244    -144.508
  O     -100.458     393.498    -143.794
  C     -101.434     395.733    -144.194
  O     -100.080     396.229    -144.071
  C     -102.074     396.332    -145.456
  N     -105.524     398.912    -142.690
  C     -104.181     398.843    -142.613
  N     -103.334     398.116    -143.375
  C     -104.005     397.456    -144.332
  C     -105.376     397.440    -144.554
  C     -106.152     398.216    -143.664
  N     -107.533     398.287    -143.752
  N     -105.704     396.640    -145.624
  C     -104.544     396.148    -146.034
  N     -103.501     396.617    -145.298
  O     -105.076     391.629    -147.129
  O     -103.110     391.401    -148.761
  H      -99.565     395.825    -144.801
  H     -105.535     391.484    -147.982
  H     -103.711     399.412    -141.811
  H     -104.422     395.461    -146.861
  H     -101.590     397.260    -145.775
  H     -101.950     395.990    -143.269
  H     -102.435     393.822    -144.314
  H     -100.070     394.457    -146.173
  H     -101.307     393.047    -147.785
  H     -108.024     398.805    -143.032
  H     -108.023     397.696    -144.408
  H     -100.843     392.130    -146.346
  P     -100.865     392.022    -143.305
  C     -100.147     392.257    -140.834
  O      -99.821     391.735    -142.102
  O     -100.315     391.117    -144.489
  O     -102.307     391.844    -142.944
  H      -99.406     391.378    -144.752
  H      -99.374     391.957    -140.121
  H     -101.104     391.861    -140.499
  H     -100.186     393.349    -140.885
  H     -103.272     387.975    -146.693
  H     -102.904     388.807    -148.185
  H     -104.537     388.812    -147.561

 3  4  5  6  7  8  9  10  11  12  22  25  29  30  31  32 0
 6-311+G(2d,p)
 ****
 33  36  37 0
 6-311+G(2d,p)
 ****
 1  2  13  14  15  16  17  18  19  20  21  23  24  26 0
 3-21G
 ****
 27  28  34  35  38  39  40  41  42  43  44  45  46  47  48 0
 3-21G
 ****


