%nproc=1
%NoSave
%Mem=1900MB
#P OB98/GEN NMR

erre ene a

0 1
  C     -130.705    -231.962      30.491
  O     -130.914    -233.370      30.506
  P     -132.295    -233.907      31.127
  C     -131.943    -236.452      31.572
  O     -132.479    -235.446      30.716
  C     -131.548    -237.683      30.751
  O     -132.696    -238.294      30.136
  C     -130.599    -237.364      29.608
  O     -129.279    -237.184      30.084
  C     -130.769    -238.582      28.704
  O     -129.845    -239.624      29.032
  C     -132.227    -239.027      28.990
  N     -133.103    -238.838      27.843
  C     -134.194    -239.715      27.761
  O     -134.351    -240.595      28.596
  N     -135.059    -239.580      26.695
  C     -134.844    -238.672      25.800
  N     -135.740    -238.586      24.771
  C     -133.693    -237.742      25.837
  C     -132.873    -237.890      26.875
  O     -133.409    -233.154      30.251
  O     -132.456    -233.616      32.588
  H     -130.052    -240.373      28.424
  H     -134.199    -232.967      30.792
  H     -133.550    -237.007      25.062
  H     -132.001    -237.247      26.985
  H     -132.249    -240.092      29.262
  H     -130.594    -238.324      27.656
  H     -130.940    -236.456      29.079
  H     -131.084    -238.416      31.431
  H     -136.511    -239.237      24.771
  H     -132.678    -236.733      32.328
  H     -135.658    -237.916      24.014
  H     -131.079    -236.043      32.103
  P     -128.302    -236.233      29.250
  C     -126.013    -237.389      29.089
  O     -126.839    -236.513      29.847
  O     -128.634    -234.784      29.855
  O     -128.433    -236.253      27.760
  H     -128.166    -234.094      29.356
  H     -124.990    -237.324      29.492
  H     -125.993    -237.088      28.041
  H     -126.363    -238.417      29.199
  H     -129.752    -231.747      30.053
  H     -130.730    -231.587      31.493
  H     -131.476    -231.493      29.916

 3  4  5  6  7  8  9  10  11  12  13  21  23  27  28  29  30  32 0
 6-311+G(2d,p)
 ****
 34  35 0
 6-311+G(2d,p)
 ****
 1  2  14  15  16  17  18  19  20  22  24  25  26 0
 3-21G
 ****
 31  33  36  37  38  39  40  41  42  43  44  45  46 0
 3-21G
 ****


