%nproc=1
%NoSave
%Mem=1900MB
#P OB98/GEN NMR

erre ene a

0 1
  C      362.879    -408.094     289.909
  O      362.338    -406.812     290.151
  H      362.103    -408.724     289.471
  H      363.207    -408.542     290.851
  H      363.719    -408.033     289.211
  P      363.370    -405.667     290.605
  C      363.953    -404.994     288.162
  O      364.426    -405.502     289.405
  C      364.835    -403.842     287.695
  O      364.728    -402.724     288.608
  C      366.316    -404.183     287.609
  O      366.638    -404.841     286.390
  C      366.925    -402.785     287.653
  O      366.786    -402.151     286.368
  C      366.034    -402.089     288.689
  N      369.974    -401.222     291.758
  C      369.846    -401.003     290.400
  N      370.925    -400.497     289.765
  N      368.760    -401.270     289.723
  C      367.770    -401.786     290.484
  C      367.779    -402.043     291.833
  C      368.981    -401.739     292.581
  O      369.139    -401.886     293.784
  N      366.576    -402.558     292.259
  C      365.852    -402.633     291.161
  N      366.530    -402.186     290.060
  O      364.231    -406.380     291.756
  O      362.753    -404.404     291.098
  H      367.224    -401.281     286.435
  H      364.451    -405.719     292.441
  H      370.842    -401.010     292.228
  H      364.836    -403.003     291.119
  H      365.898    -401.025     288.470
  H      367.989    -402.798     287.889
  H      371.805    -400.311     290.217
  H      366.649    -404.750     288.482
  H      370.843    -400.297     288.771
  H      364.456    -403.500     286.720
  H      362.923    -404.638     288.291
  H      363.957    -405.799     287.422
  P      367.988    -405.714     286.353
  C      366.938    -407.838     287.423
  O      367.854    -406.761     287.568
  O      369.095    -404.690     286.874
  O      368.327    -406.293     285.022
  H      369.981    -404.966     286.557
  H      366.959    -408.445     288.304
  H      367.215    -408.430     286.576
  H      365.951    -407.450     287.280

 6  7  8  9  10  11  12  13  14  15  26  29  33  34 0
 6-311+G(2d,p)
 ****
 36  38  39  40  41 0
 6-311+G(2d,p)
 ****
 1  2  3  4  5  16  17  18  19  20  21  22  23  24  25 0
 3-21G
 ****
 27  28  30  31  32  35  37  42  43  44  45  46  47 0
 3-21G
 ****
 48  49 0
 3-21G
 ****


