%nproc=1
%NoSave
%Mem=1900MB
#P OB98/GEN NMR

erre ene a

0 1
  C      362.947      -0.791     -81.904
  O      363.043      -1.579     -80.728
  P      362.218      -1.096     -79.438
  C      362.227       1.207     -78.165
  O      362.930       0.252     -78.946
  C      363.033       2.506     -78.067
  O      363.076       3.156     -79.356
  C      362.457       3.539     -77.112
  O      362.727       3.217     -75.756
  C      363.130       4.813     -77.610
  O      364.470       4.901     -77.096
  C      363.159       4.577     -79.135
  N      362.100       5.288     -79.846
  C      362.160       6.679     -79.810
  O      363.043       7.299     -79.223
  N      361.151       7.334     -80.464
  C      360.077       6.755     -81.080
  O      359.179       7.392     -81.612
  C      360.054       5.285     -81.055
  C      361.048       4.631     -80.450
  O      362.665      -2.204     -78.373
  O      360.750      -1.004     -79.679
  H      363.545      -2.566     -78.577
  H      364.906       5.628     -77.583
  H      361.184       8.343     -80.472
  H      359.212       4.787     -81.525
  H      361.040       3.548     -80.415
  H      364.126       4.896     -79.546
  H      362.601       5.718     -77.299
  H      361.372       3.620     -77.259
  H      364.062       2.248     -77.782
  H      362.068       0.800     -77.163
  H      361.250       1.396     -78.625
  P      361.747       3.857     -74.652
  C      361.700       6.164     -73.427
  O      362.427       5.229     -74.189
  O      361.975       2.864     -73.419
  O      360.327       3.964     -75.104
  H      362.909       2.625     -73.295
  H      362.405       6.829     -72.922
  H      361.076       5.671     -72.676
  H      361.064       6.763     -74.092
  H      363.544      -1.229     -82.677
  H      363.298       0.199     -81.700
  H      361.926      -0.749     -82.223

 3  4  5  6  7  8  9  10  11  12  13  24  28  29  30  31  32 0
 6-311+G(2d,p)
 ****
 33  34 0
 6-311+G(2d,p)
 ****
 1  2  14  15  16  17  18  19  20  21  22  23  25  26  27 0
 3-21G
 ****
 35  36  37  38  39  40  41  42  43  44  45 0
 3-21G
 ****


