%nproc=1
%NoSave
%Mem=1900MB
#P OB98/GEN NMR

erre ene a

0 1
  C     -319.082     -91.325    -555.640
  O     -318.068     -91.912    -554.851
  H     -319.333     -92.009    -556.455
  H     -318.725     -90.387    -556.073
  H     -319.982     -91.142    -555.048
  P     -317.656     -91.205    -553.472
  C     -319.124     -92.561    -551.841
  O     -318.926     -91.315    -552.499
  C     -319.270     -92.335    -550.338
  O     -318.041     -91.811    -549.791
  C     -320.353     -91.333    -549.961
  O     -321.640     -91.905    -550.082
  C     -319.936     -90.988    -548.540
  O     -320.370     -92.000    -547.619
  C     -318.393     -90.979    -548.664
  N     -317.835     -89.634    -548.810
  C     -317.846     -88.831    -547.674
  O     -318.331     -89.193    -546.605
  N     -317.296     -87.583    -547.817
  C     -316.822     -87.051    -548.982
  O     -316.387     -85.905    -549.069
  C     -316.868     -87.930    -550.156
  C     -317.360     -89.162    -550.020
  O     -317.073     -89.837    -553.592
  O     -316.616     -92.234    -552.821
  H     -320.012     -92.848    -547.949
  H     -315.705     -91.921    -552.973
  H     -317.307     -86.986    -547.008
  H     -316.505     -87.535    -551.097
  H     -317.407     -89.827    -550.876
  H     -317.939     -91.442    -547.779
  H     -320.360     -90.045    -548.193
  H     -320.267     -90.430    -550.580
  H     -319.458     -93.308    -549.863
  H     -318.256     -93.202    -552.032
  H     -320.019     -93.038    -552.250
  P     -322.947     -90.986    -550.097
  C     -323.790     -91.083    -552.515
  O     -323.060     -90.326    -551.559
  O     -323.057     -90.018    -548.967
  O     -324.159     -92.033    -550.082
  H     -324.575     -92.042    -549.199
  H     -323.806     -90.559    -553.448
  H     -324.792     -91.224    -552.168
  H     -323.322     -92.036    -552.648

 6  7  8  9  10  11  12  13  14  15  16  26  31  32  33  34  35 0
 6-311+G(2d,p)
 ****
 36  37 0
 6-311+G(2d,p)
 ****
 1  2  3  4  5  17  18  19  20  21  22  23  24  25 0
 3-21G
 ****
 27  28  29  30  38  39  40  41  42  43  44  45 0
 3-21G
 ****


