%nproc=1
%NoSave
%Mem=1900MB
#P OB98/GEN NMR

erre ene a

0 1
  C      -94.583     -32.294      56.071
  O      -95.221     -33.509      56.416
  P      -96.098     -33.558      57.758
  C      -98.435     -33.962      56.629
  O      -97.580     -33.097      57.353
  C      -99.804     -34.046      57.309
  O      -99.663     -34.768      58.564
  C     -100.440     -32.688      57.629
  O     -101.856     -32.833      57.463
  C     -100.094     -32.491      59.095
  O     -100.960     -31.576      59.745
  C     -100.198     -33.932      59.609
  N      -99.482     -34.156      60.865
  C      -99.992     -33.572      62.017
  O     -100.995     -32.859      62.040
  N      -99.283     -33.809      63.168
  C      -98.111     -34.498      63.263
  O      -97.509     -34.665      64.317
  C      -97.594     -35.053      62.005
  C      -98.298     -34.868      60.886
  O      -95.506     -32.309      58.560
  O      -96.021     -34.862      58.476
  H      -95.261     -31.566      57.981
  H     -100.972     -30.750      59.229
  H      -99.656     -33.426      64.022
  H      -96.658     -35.596      62.036
  H      -97.936     -35.267      59.945
  H     -101.252     -34.210      59.733
  H      -99.071     -32.111      59.179
  H     -100.070     -31.889      56.983
  H     -100.469     -34.640      56.669
  H      -97.994     -34.962      56.590
  H      -98.532     -33.597      55.601
  P     -102.647     -31.680      56.665
  C     -102.897     -32.948      54.389
  O     -102.333     -31.873      55.108
  O     -101.756     -30.402      57.054
  O     -104.082     -31.519      57.047
  H     -100.803     -30.558      56.935
  H     -102.847     -32.720      53.322
  H     -103.943     -33.106      54.663
  H     -102.325     -33.860      54.583
  H      -94.041     -32.423      55.157
  H      -93.906     -32.013      56.850
  H      -95.319     -31.528      55.945

 3  4  5  6  7  8  9  10  11  12  13  24  28  29  30  31  32 0
 6-311+G(2d,p)
 ****
 33  34 0
 6-311+G(2d,p)
 ****
 1  2  14  15  16  17  18  19  20  21  22  23  25  26  27 0
 3-21G
 ****
 35  36  37  38  39  40  41  42  43  44  45 0
 3-21G
 ****


