%nproc=1
%NoSave
%Mem=1900MB
#P OB98/GEN NMR

erre ene a

0 1
  C     -702.480     250.810    -171.835
  O     -703.187     249.939    -170.965
  P     -703.991     248.671    -171.536
  C     -706.474     249.218    -171.924
  O     -705.151     249.297    -172.452
  C     -707.405     248.556    -172.941
  O     -707.126     249.113    -174.246
  C     -707.242     247.048    -173.111
  O     -707.957     246.265    -172.158
  C     -707.857     246.844    -174.488
  O     -709.294     246.854    -174.384
  C     -707.374     248.086    -175.240
  N     -705.502     246.828    -179.836
  C     -706.765     247.027    -179.396
  N     -707.184     247.341    -178.146
  C     -706.136     247.493    -177.323
  C     -704.796     247.330    -177.627
  C     -704.485     246.983    -178.954
  N     -703.190     246.806    -179.403
  N     -704.010     247.552    -176.508
  C     -704.867     247.861    -175.557
  N     -706.164     247.843    -176.003
  O     -704.437     247.701    -170.492
  O     -703.001     248.027    -172.607
  H     -709.642     246.743    -175.290
  H     -703.286     247.109    -172.816
  H     -707.547     246.913    -180.145
  H     -704.604     248.092    -174.534
  H     -708.128     248.486    -175.928
  H     -707.576     245.894    -174.945
  H     -706.185     246.758    -173.144
  H     -708.438     248.813    -172.683
  H     -706.825     250.235    -171.729
  H     -703.059     246.685    -180.396
  H     -702.436     247.077    -178.792
  H     -706.464     248.668    -170.981
  P     -707.342     244.832    -171.771
  C     -709.152     243.204    -172.717
  O     -707.891     243.807    -172.872
  O     -707.549     244.434    -170.359
  O     -705.794     245.004    -172.166
  H     -705.612     245.092    -173.114
  H     -709.414     242.676    -173.636
  H     -709.921     243.955    -172.519
  H     -709.127     242.480    -171.891
  H     -702.015     251.586    -171.263
  H     -703.162     251.244    -172.537
  H     -701.730     250.257    -172.361

 3  4  5  6  7  8  9  10  11  12  22  25  29  30  31  32 0
 6-311+G(2d,p)
 ****
 33  36  37 0
 6-311+G(2d,p)
 ****
 1  2  13  14  15  16  17  18  19  20  21  23  24  26 0
 3-21G
 ****
 27  28  34  35  38  39  40  41  42  43  44  45  46  47  48 0
 3-21G
 ****


