%nproc=1
%NoSave
%Mem=1900MB
#P OB98/GEN NMR

erre ene a

0 1
  C     -156.927    -575.613     709.292
  O     -155.605    -575.946     709.662
  H     -157.083    -575.845     708.236
  H     -157.620    -576.213     709.888
  H     -157.128    -574.553     709.475
  P     -154.430    -574.986     709.139
  C     -154.284    -574.110     711.579
  O     -154.324    -573.780     710.195
  C     -153.793    -572.913     712.395
  O     -152.342    -572.845     712.274
  C     -154.366    -571.563     711.951
  O     -154.617    -570.770     713.123
  C     -153.225    -570.935     711.172
  O     -153.283    -569.511     711.150
  C     -152.016    -571.490     711.914
  N     -148.760    -568.318     709.625
  C     -149.679    -568.117     710.596
  N     -150.469    -569.036     711.187
  C     -150.200    -570.269     710.736
  C     -149.283    -570.630     709.748
  C     -148.562    -569.573     709.167
  N     -147.672    -569.747     708.132
  N     -149.340    -571.988     709.523
  C     -150.274    -572.440     710.323
  N     -150.825    -571.436     711.076
  O     -155.098    -574.297     707.847
  O     -153.142    -575.662     708.802
  H     -152.507    -569.173     710.654
  H     -154.948    -574.858     707.065
  H     -149.804    -567.096     710.935
  H     -150.620    -573.462     710.381
  H     -151.789    -570.927     712.836
  H     -153.252    -571.292     710.137
  H     -155.287    -571.641     711.362
  H     -154.016    -573.103     713.451
  H     -153.602    -574.949     711.723
  H     -147.278    -568.925     707.707
  H     -147.594    -570.667     707.710
  H     -155.289    -574.401     711.904
  P     -156.091    -570.813     713.744
  C     -155.105    -570.693     716.154
  O     -156.000    -571.340     715.253
  O     -156.778    -572.038     712.966
  O     -156.868    -569.547     713.562
  H     -157.732    -571.871     712.850
  H     -155.164    -571.162     717.114
  H     -155.374    -569.661     716.244
  H     -154.105    -570.770     715.780

 6  7  8  9  10  11  12  13  14  15  25  28  32  33  34  35 0
 6-311+G(2d,p)
 ****
 36  39  40 0
 6-311+G(2d,p)
 ****
 1  2  3  4  5  16  17  18  19  20  21  22  23  24 0
 3-21G
 ****
 26  27  29  30  31  37  38  41  42  43  44  45  46  47 0
 3-21G
 ****
 48 0
 3-21G
 ****


