%nproc=1
%NoSave
%Mem=1900MB
#P OB98/GEN NMR

erre ene a

0 1
  C     -774.553    1067.518    -289.531
  O     -773.208    1067.265    -289.900
  H     -774.691    1067.197    -288.489
  H     -775.231    1066.949    -290.176
  H     -774.780    1068.594    -289.598
  P     -772.744    1067.824    -291.333
  C     -770.423    1068.744    -290.519
  O     -771.137    1067.822    -291.344
  C     -768.919    1068.434    -290.606
  O     -768.417    1068.639    -291.934
  C     -768.060    1069.362    -289.753
  O     -768.193    1069.132    -288.353
  C     -766.681    1069.053    -290.301
  O     -766.175    1067.829    -289.747
  C     -766.996    1068.894    -291.814
  N     -766.578    1070.048    -292.590
  C     -765.229    1070.111    -292.929
  O     -764.461    1069.208    -292.569
  N     -764.756    1071.198    -293.633
  C     -765.574    1072.124    -293.985
  N     -765.069    1073.184    -294.672
  C     -767.024    1072.083    -293.705
  C     -767.461    1071.041    -292.995
  O     -773.105    1069.388    -291.240
  O     -773.341    1067.118    -292.515
  H     -766.085    1067.989    -288.789
  H     -772.723    1069.824    -290.457
  H     -767.681    1072.902    -294.026
  H     -768.490    1070.935    -292.720
  H     -766.462    1068.000    -292.226
  H     -765.951    1069.840    -290.078
  H     -768.289    1070.411    -289.997
  H     -768.770    1067.399    -290.328
  H     -764.064    1073.193    -294.846
  H     -770.762    1068.681    -289.477
  H     -765.591    1073.987    -294.978
  H     -770.624    1069.740    -290.905
  P     -768.136    1070.341    -287.320
  C     -769.062    1068.628    -285.643
  O     -768.125    1069.674    -285.859
  O     -769.167    1071.434    -287.500
  O     -766.625    1070.858    -287.456
  H     -765.943    1070.198    -287.245
  H     -768.964    1068.262    -284.642
  H     -768.874    1067.832    -286.333
  H     -770.054    1069.001    -285.791

 6  7  8  9  10  11  12  13  14  15  16  26  30  31  32  33  35 0
 6-311+G(2d,p)
 ****
 37  38 0
 6-311+G(2d,p)
 ****
 1  2  3  4  5  17  18  19  20  21  22  23  24  25 0
 3-21G
 ****
 27  28  29  34  36  39  40  41  42  43  44  45  46 0
 3-21G
 ****


