%nproc=1
%NoSave
%Mem=1900MB
#P OB98/GEN NMR

erre ene a

0 1
  C       56.256     151.118    -162.586
  O       56.742     152.106    -161.700
  H       55.233     150.860    -162.295
  H       56.873     150.217    -162.524
  H       56.245     151.490    -163.614
  P       58.172     152.773    -161.996
  C       60.638     152.022    -161.890
  O       59.277     151.637    -161.758
  C       61.522     151.104    -161.045
  O       61.383     151.427    -159.645
  C       61.167     149.628    -161.168
  O       61.643     149.087    -162.384
  C       61.834     149.069    -159.918
  O       63.239     148.870    -160.133
  C       61.583     150.206    -158.899
  N       60.451     149.935    -158.012
  C       60.745     149.293    -156.811
  O       61.881     148.927    -156.498
  N       59.677     149.054    -155.987
  C       58.366     149.283    -156.289
  O       57.438     148.967    -155.551
  C       58.112     149.939    -157.579
  C       59.152     150.232    -158.369
  O       58.437     154.067    -161.303
  O       58.180     152.951    -163.589
  H       63.319     148.091    -160.714
  H       58.039     153.890    -163.811
  H       59.866     148.579    -155.120
  H       57.087     150.151    -157.847
  H       58.985     150.711    -159.326
  H       62.477     150.361    -158.280
  H       61.412     148.110    -159.620
  H       60.083     149.493    -161.081
  H       62.571     151.283    -161.329
  H       60.748     153.057    -161.539
  H       60.922     151.973    -162.946
  P       60.878     147.853    -163.061
  C       60.455     145.367    -162.552
  O       61.095     146.569    -162.124
  O       61.175     147.634    -164.509
  O       59.330     148.201    -162.848
  H       58.890     148.278    -163.717
  H       60.667     144.583    -161.856
  H       60.820     145.094    -163.520
  H       59.398     145.524    -162.601

 6  7  8  9  10  11  12  13  14  15  16  26  31  32  33  34  35 0
 6-311+G(2d,p)
 ****
 36  37 0
 6-311+G(2d,p)
 ****
 1  2  3  4  5  17  18  19  20  21  22  23  24  25 0
 3-21G
 ****
 27  28  29  30  38  39  40  41  42  43  44  45 0
 3-21G
 ****


