%nproc=1
%NoSave
%Mem=1900MB
#P OB98/GEN NMR

erre ene a

0 1
  C     -898.290    -413.832    -892.700
  O     -898.220    -413.342    -894.040
  P     -898.000    -411.759    -894.220
  C     -895.740    -411.805    -895.510
  O     -896.410    -411.483    -894.300
  C     -895.200    -413.232    -895.440
  O     -896.270    -414.206    -895.270
  C     -894.490    -413.664    -896.720
  O     -893.190    -413.084    -896.790
  C     -894.470    -415.192    -896.530
  O     -893.440    -415.586    -895.620
  C     -895.850    -415.420    -895.900
  N     -897.880    -419.466    -898.290
  C     -896.870    -419.355    -897.410
  N     -896.400    -418.251    -896.820
  C     -897.080    -417.159    -897.210
  C     -898.130    -417.112    -898.120
  C     -898.540    -418.341    -898.680
  N     -899.550    -418.442    -899.600
  N     -898.580    -415.819    -898.280
  C     -897.780    -415.090    -897.510
  N     -896.870    -415.870    -896.840
  O     -898.410    -411.163    -892.790
  O     -898.810    -411.171    -895.320
  H     -893.430    -414.942    -894.890
  H     -899.260    -410.701    -892.860
  H     -896.400    -420.299    -897.140
  H     -897.850    -414.012    -897.400
  H     -895.820    -416.195    -895.100
  H     -894.320    -415.727    -897.470
  H     -895.070    -413.404    -897.600
  H     -894.520    -413.323    -894.590
  H     -894.910    -411.112    -895.680
  H     -899.730    -419.338    -900.000
  H     -900.000    -417.586    -899.940
  H     -896.440    -411.687    -896.340
  P     -893.030    -411.767    -897.690
  C     -891.510    -410.492    -896.060
  O     -892.800    -410.579    -896.620
  O     -894.530    -411.521    -898.180
  O     -892.000    -411.868    -898.770
  H     -895.170    -411.592    -897.440
  H     -891.490    -409.650    -895.360
  H     -890.770    -410.348    -896.840
  H     -891.290    -411.416    -895.490
  H     -898.437    -414.892    -892.715
  H     -899.108    -413.366    -892.192
  H     -897.377    -413.606    -892.189

 3  4  5  6  7  8  9  10  11  12  22  25  29  30  31  32 0
 6-311+G(2d,p)
 ****
 33  36  37 0
 6-311+G(2d,p)
 ****
 1  2  13  14  15  16  17  18  19  20  21  23  24  26 0
 3-21G
 ****
 27  28  34  35  38  39  40  41  42  43  44  45  46  47  48 0
 3-21G
 ****


