%nproc=1
%NoSave
%Mem=1900MB
#P OB98/GEN NMR

erre ene a

0 1
  C      364.303     670.505      31.588
  O      365.199     671.378      32.238
  P      365.376     671.222      33.828
  C      363.517     670.906      35.658
  O      363.942     671.537      34.458
  C      362.085     671.312      35.994
  O      361.166     670.504      35.246
  C      361.694     671.134      37.466
  O      362.226     672.175      38.281
  C      360.172     671.115      37.365
  O      359.666     672.466      37.264
  C      359.950     670.365      36.035
  N      359.596     668.953      36.225
  C      358.284     668.697      36.587
  O      357.438     669.581      36.763
  N      357.965     667.376      36.779
  C      358.832     666.320      36.700
  O      358.494     665.161      36.933
  C      360.212     666.654      36.336
  C      360.523     667.941      36.122
  O      366.267     672.520      34.157
  O      365.991     669.920      34.220
  H      366.119     673.232      33.505
  H      359.921     672.907      38.114
  H      357.003     667.161      37.029
  H      360.932     665.862      36.279
  H      361.545     668.217      35.863
  H      359.155     670.852      35.457
  H      359.705     670.650      38.235
  H      362.042     670.161      37.822
  H      361.950     672.367      35.687
  H      364.194     671.219      36.482
  H      363.595     669.825      35.551
  P      362.203     671.906      39.877
  C      360.257     671.017      41.364
  O      360.665     671.835      40.299
  O      362.710     673.331      40.426
  O      363.051     670.743      40.302
  H      362.308     674.091      39.954
  H      359.287     671.362      41.732
  H      360.978     671.053      42.205
  H      360.170     669.980      41.029
  H      364.288     670.724      30.541
  H      363.321     670.635      31.993
  H      364.619     669.494      31.737

 3  4  5  6  7  8  9  10  11  12  13  24  28  29  30  31  32 0
 6-311+G(2d,p)
 ****
 33  34 0
 6-311+G(2d,p)
 ****
 1  2  14  15  16  17  18  19  20  21  22  23  25  26  27 0
 3-21G
 ****
 35  36  37  38  39  40  41  42  43  44  45 0
 3-21G
 ****


