%nproc=1
%NoSave
%Mem=1900MB
#P OB98/GEN NMR

erre ene a

0 1
  C      463.361     498.573    -891.820
  O      464.670     499.031    -891.500
  P      465.015     500.566    -891.800
  C      465.311     501.861    -894.040
  O      465.518     500.663    -893.300
  C      465.632     501.647    -895.530
  O      464.676     500.718    -896.110
  C      465.570     502.900    -896.360
  O      466.730     503.704    -896.200
  C      465.424     502.348    -897.770
  O      466.694     501.970    -898.330
  C      464.571     501.071    -897.520
  N      463.157     501.271    -897.910
  C      462.590     500.264    -898.670
  O      463.217     499.279    -899.050
  N      461.269     500.447    -899.030
  C      460.506     501.524    -898.730
  O      459.369     501.657    -899.140
  C      461.170     502.580    -897.920
  C      462.445     502.401    -897.570
  O      466.334     500.832    -890.930
  O      463.907     501.536    -891.450
  H      466.536     501.800    -899.290
  H      466.325     501.746    -890.590
  H      460.844     499.720    -899.590
  H      460.591     503.478    -897.690
  H      462.943     503.172    -897.000
  H      464.965     500.223    -898.090
  H      464.969     503.050    -898.470
  H      464.664     503.490    -896.130
  H      466.633     501.188    -895.600
  H      465.951     502.657    -893.640
  H      464.261     502.159    -893.940
  P      466.635     505.237    -896.700
  C      465.664     506.130    -898.940
  O      466.453     505.169    -898.270
  O      468.166     505.712    -896.450
  O      465.606     506.017    -895.930
  H      468.795     504.993    -896.600
  H      465.750     507.105    -898.470
  H      464.621     505.807    -898.930
  H      465.997     506.175    -900.000
  H      463.274     497.537    -891.568
  H      463.184     498.701    -892.868
  H      462.640     499.137    -891.265

 3  4  5  6  7  8  9  10  11  12  13  23  28  29  30  31  32 0
 6-311+G(2d,p)
 ****
 33  34 0
 6-311+G(2d,p)
 ****
 1  2  14  15  16  17  18  19  20  21  22  24  25  26 0
 3-21G
 ****
 27  35  36  37  38  39  40  41  42  43  44  45 0
 3-21G
 ****


