%nproc=1
%NoSave
%Mem=1900MB
#P OB98/GEN NMR

erre ene a

0 1
  C      -43.930     -61.978      70.012
  O      -42.700     -62.437      69.499
  P      -41.330     -61.668      69.806
  C      -41.633     -60.795      67.401
  O      -40.708     -61.247      68.384
  C      -41.036     -59.625      66.609
  O      -41.963     -59.268      65.535
  C      -40.811     -58.370      67.475
  O      -39.490     -57.832      67.403
  C      -41.921     -57.439      67.013
  O      -41.679     -56.074      67.292
  C      -42.060     -57.831      65.538
  N      -43.310     -57.357      64.949
  C      -43.302     -56.084      64.386
  O      -42.320     -55.348      64.345
  N      -44.501     -55.633      63.909
  C      -45.703     -56.262      64.040
  O      -46.755     -55.756      63.676
  C      -45.655     -57.586      64.678
  C      -44.479     -58.078      65.077
  O      -40.380     -62.386      70.702
  O      -41.828     -60.258      70.380
  H      -40.956     -55.772      66.711
  H      -42.383     -59.741      69.771
  H      -44.510     -54.712      63.499
  H      -46.594     -58.105      64.805
  H      -44.413     -59.051      65.551
  H      -41.231     -57.448      64.943
  H      -42.835     -57.718      67.552
  H      -40.946     -58.596      68.539
  H      -40.101     -59.968      66.160
  H      -42.544     -60.461      67.901
  H      -41.905     -61.624      66.739
  P      -38.598     -57.412      68.664
  C      -39.351     -54.928      68.813
  O      -38.304     -55.843      68.566
  O      -37.399     -58.266      68.907
  O      -39.621     -57.513      69.893
  H      -39.131     -57.730      70.707
  H      -39.160     -54.016      68.242
  H      -39.367     -54.678      69.876
  H      -40.321     -55.337      68.516
  H      -44.716     -62.630      69.691
  H      -44.119     -60.988      69.653
  H      -43.889     -61.968      71.081

 3  4  5  6  7  8  9  10  11  12  13  23  28  29  30  31  32 0
 6-311+G(2d,p)
 ****
 33  34 0
 6-311+G(2d,p)
 ****
 1  2  14  15  16  17  18  19  20  21  22  24  25  26  27 0
 3-21G
 ****
 35  36  37  38  39  40  41  42  43  44  45 0
 3-21G
 ****


