%nproc=1
%NoSave
%Mem=1900MB
#P OB98/GEN NMR

erre ene a

0 1
  C      164.223     -65.553    -110.756
  O      163.105     -66.363    -110.358
  P      162.532     -67.569    -111.261
  C      160.251     -66.496    -111.818
  O      161.482     -66.985    -112.330
  C      159.217     -66.269    -112.931
  O      157.967     -65.773    -112.360
  C      159.658     -65.278    -114.015
  O      159.178     -65.796    -115.266
  C      158.909     -64.015    -113.605
  O      158.791     -63.051    -114.649
  C      157.578     -64.635    -113.156
  N      156.694     -63.742    -112.404
  C      156.120     -62.668    -113.085
  O      156.387     -62.436    -114.259
  N      155.244     -61.849    -112.398
  C      154.980     -62.082    -111.152
  N      154.095     -61.241    -110.532
  C      155.578     -63.197    -110.394
  C      156.409     -63.977    -111.067
  O      161.983     -68.708    -110.452
  O      163.763     -68.059    -112.156
  H      163.709     -69.026    -112.273
  H      158.399     -63.489    -115.419
  H      155.321     -63.363    -109.354
  H      156.871     -64.841    -110.596
  H      157.039     -65.015    -114.037
  H      159.443     -63.536    -112.777
  H      160.742     -65.150    -114.083
  H      158.981     -67.248    -113.378
  H      153.701     -60.493    -111.091
  H      160.440     -65.540    -111.314
  H      153.812     -61.340    -109.572
  H      159.867     -67.198    -111.070
  P      160.101     -66.772    -116.134
  C      160.205     -65.205    -118.223
  O      160.912     -65.866    -117.195
  O      159.027     -67.495    -117.085
  O      160.890     -67.788    -115.367
  H      159.374     -68.360    -117.353
  H      160.581     -64.183    -118.315
  H      159.123     -65.178    -118.041
  H      160.391     -65.733    -119.170
  H      164.420     -64.821    -110.001
  H      163.997     -65.061    -111.679
  H      165.085     -66.173    -110.884

 3  4  5  6  7  8  9  10  11  12  13  24  27  28  29  30  32 0
 6-311+G(2d,p)
 ****
 34  35 0
 6-311+G(2d,p)
 ****
 1  2  14  15  16  17  18  19  20  21  22  23  25  26 0
 3-21G
 ****
 31  33  36  37  38  39  40  41  42  43  44  45  46 0
 3-21G
 ****


