%nproc=1
%NoSave
%Mem=1900MB
#P OB98/GEN NMR

erre ene a

0 1
  C     -128.727    1001.036     -60.595
  O     -129.841    1000.716     -59.790
  H     -128.592    1002.120     -60.590
  H     -128.901    1000.714     -61.626
  H     -127.816    1000.563     -60.206
  P     -130.135     999.158     -59.530
  C     -128.650     998.939     -57.410
  O     -128.844     998.572     -58.762
  C     -129.380     997.974     -56.471
  O     -128.900     996.619     -56.739
  C     -129.157     998.258     -54.983
  O     -130.382     998.013     -54.295
  C     -128.123     997.238     -54.560
  O     -128.167     996.935     -53.169
  C     -128.458     996.061     -55.481
  N     -127.294     995.174     -55.670
  C     -126.888     994.448     -54.548
  O     -127.467     994.567     -53.476
  N     -125.772     993.638     -54.666
  C     -125.095     993.632     -55.768
  N     -123.995     992.843     -55.805
  C     -125.456     994.439     -56.953
  C     -126.570     995.176     -56.837
  O     -130.025     998.507     -60.980
  O     -131.436     998.861     -58.862
  H     -128.991     996.437     -52.991
  H     -130.628     997.746     -61.074
  H     -124.845     994.420     -57.844
  H     -126.916     995.808     -57.654
  H     -129.283     995.471     -55.079
  H     -127.106     997.626     -54.790
  H     -128.830     999.287     -54.795
  H     -130.444     997.990     -56.727
  H     -123.761     992.320     -54.977
  H     -129.045     999.946     -57.246
  H     -123.360     992.787     -56.602
  H     -127.574     998.944     -57.181
  P     -131.168     999.299     -53.731
  C     -133.049     999.443     -55.520
  O     -131.883    1000.024     -54.971
  O     -130.001    1000.291     -53.307
  O     -132.076     998.973     -52.586
  H     -129.950    1000.353     -52.332
  H     -133.399    1000.045     -56.333
  H     -133.807     999.385     -54.767
  H     -132.824     998.459     -55.876

 6  7  8  9  10  11  12  13  14  15  16  26  30  31  32  33  35 0
 6-311+G(2d,p)
 ****
 37  38 0
 6-311+G(2d,p)
 ****
 1  2  3  4  5  17  18  19  20  21  22  23  24  25 0
 3-21G
 ****
 27  28  29  34  36  39  40  41  42  43  44  45  46 0
 3-21G
 ****


