%nproc=1
%NoSave
%Mem=1900MB
#P OB98/GEN NMR

erre ene a

0 1
  C      307.886    -172.427     126.095
  O      307.932    -173.806     126.480
  P      308.778    -174.157     127.793
  C      309.662    -176.303     128.963
  O      308.937    -175.753     127.871
  C      309.342    -177.790     129.112
  O      308.056    -178.001     129.736
  C      309.266    -178.531     127.780
  O      310.560    -178.753     127.248
  C      308.520    -179.793     128.198
  O      309.420    -180.721     128.830
  C      307.523    -179.250     129.235
  N      303.624    -181.392     126.706
  C      304.819    -181.877     127.101
  N      305.807    -181.242     127.768
  C      305.456    -179.975     128.040
  C      304.269    -179.343     127.707
  C      303.324    -180.104     127.003
  N      302.110    -179.604     126.591
  N      304.273    -178.036     128.155
  C      305.450    -177.878     128.726
  N      306.198    -179.026     128.693
  O      307.771    -173.816     128.987
  O      310.055    -173.390     127.907
  H      310.174    -180.853     128.225
  H      308.064    -173.010     129.449
  H      305.016    -182.916     126.844
  H      305.806    -176.958     129.174
  H      307.411    -179.924     130.093
  H      308.054    -180.312     127.355
  H      308.662    -177.957     127.064
  H      310.113    -178.245     129.745
  H      309.410    -175.777     129.887
  H      301.522    -180.196     126.022
  H      301.912    -178.624     126.728
  H      310.732    -176.144     128.791
  P      310.890    -178.148     125.802
  C      313.132    -177.704     124.637
  O      312.444    -178.490     125.589
  O      310.916    -176.579     126.107
  O      309.973    -178.585     124.710
  H      311.420    -176.379     126.918
  H      314.182    -178.016     124.617
  H      313.085    -176.646     124.910
  H      312.705    -177.855     123.644
  H      307.294    -172.323     125.209
  H      308.879    -172.077     125.904
  H      307.450    -171.851     126.884

 3  4  5  6  7  8  9  10  11  12  22  25  29  30  31  32 0
 6-311+G(2d,p)
 ****
 33  36  37 0
 6-311+G(2d,p)
 ****
 1  2  13  14  15  16  17  18  19  20  21  23  24  26 0
 3-21G
 ****
 27  28  34  35  38  39  40  41  42  43  44  45  46  47  48 0
 3-21G
 ****


