%nproc=1
%NoSave
%Mem=1900MB
#P OB98/GEN NMR

erre ene a

0 1
  C      -21.437       9.495      -8.048
  O      -22.116       9.492      -6.809
  H      -21.565      10.476      -8.515
  H      -21.861       8.736      -8.708
  H      -20.367       9.312      -7.910
  P      -21.870       8.276      -5.795
  C      -23.920       6.899      -6.536
  O      -22.503       6.971      -6.480
  C      -24.394       5.448      -6.413
  O      -24.021       4.733      -7.631
  C      -23.772       4.683      -5.226
  O      -24.746       3.734      -4.772
  C      -22.608       3.988      -5.905
  O      -22.064       2.972      -5.104
  C      -23.280       3.568      -7.214
  N      -22.341       3.138      -8.242
  C      -22.095       1.774      -8.353
  O      -22.637       0.920      -7.656
  N      -21.178       1.411      -9.305
  C      -20.499       2.260     -10.128
  O      -19.704       1.879     -10.979
  C      -20.780       3.693      -9.943
  C      -21.675       4.060      -9.024
  O      -22.289       8.514      -4.383
  O      -20.295       8.007      -5.904
  H      -19.836       8.451      -5.166
  H      -22.764       2.346      -4.821
  H      -20.987       0.426      -9.399
  H      -20.241       4.393     -10.566
  H      -21.906       5.108      -8.858
  H      -24.009       2.770      -7.037
  H      -21.801       4.701      -6.097
  H      -23.485       5.339      -4.399
  H      -25.489       5.435      -6.361
  H      -24.247       7.315      -7.494
  H      -24.344       7.499      -5.724
  P      -25.203       3.606      -3.238
  C      -23.311       2.004      -2.528
  O      -23.923       3.270      -2.328
  O      -26.341       2.659      -3.030
  O      -25.614       5.086      -2.790
  H      -26.368       5.036      -2.171
  H      -22.476       1.903      -1.867
  H      -22.975       1.926      -3.541
  H      -24.021       1.229      -2.327

 6  7  8  9  10  11  12  13  14  15  16  27  31  32  33  34  35 0
 6-311+G(2d,p)
 ****
 36  37 0
 6-311+G(2d,p)
 ****
 1  2  3  4  5  17  18  19  20  21  22  23  24  25 0
 3-21G
 ****
 26  28  29  30  38  39  40  41  42  43  44  45 0
 3-21G
 ****


