%nproc=1
%NoSave
%Mem=1900MB
#P OB98/GEN NMR

erre ene a

0 1
  C     -121.042     350.174    -121.482
  O     -121.450     349.178    -122.399
  H     -121.374     351.148    -121.849
  H     -119.954     350.181    -121.393
  H     -121.496     349.994    -120.502
  P     -121.076     347.662    -122.029
  C     -118.855     346.341    -121.740
  O     -119.484     347.538    -122.180
  C     -117.445     346.262    -122.314
  O     -116.659     347.380    -121.836
  C     -116.678     345.016    -121.889
  O     -117.058     343.871    -122.628
  C     -115.243     345.455    -122.144
  O     -114.877     345.283    -123.519
  C     -115.281     346.945    -121.785
  N     -110.943     347.344    -119.124
  C     -111.178     347.161    -120.442
  N     -112.368     347.079    -121.077
  C     -113.380     347.234    -120.205
  C     -113.292     347.426    -118.836
  C     -112.000     347.484    -118.294
  N     -111.755     347.643    -116.947
  N     -114.552     347.503    -118.274
  C     -115.385     347.362    -119.287
  N     -114.723     347.201    -120.472
  O     -121.644     346.836    -123.276
  O     -121.634     347.170    -120.736
  H     -115.636     345.604    -124.045
  H     -122.505     346.438    -123.039
  H     -110.300     347.060    -121.070
  H     -116.467     347.366    -119.207
  H     -114.720     347.559    -122.501
  H     -114.548     344.874    -121.540
  H     -116.806     344.843    -120.814
  H     -117.505     346.330    -123.408
  H     -119.436     345.479    -122.087
  H     -118.831     346.335    -120.647
  H     -110.804     347.605    -116.619
  H     -112.538     347.637    -116.303
  P     -116.780     342.434    -121.973
  C     -114.677     340.939    -121.599
  O     -115.237     342.084    -122.232
  O     -117.568     341.419    -122.925
  O     -117.210     342.309    -120.548
  H     -117.940     340.687    -122.396
  H     -113.647     340.848    -121.874
  H     -115.208     340.064    -121.910
  H     -114.755     341.045    -120.537

 6  7  8  9  10  11  12  13  14  15  25  28  32  33  34  35 0
 6-311+G(2d,p)
 ****
 36  37  40 0
 6-311+G(2d,p)
 ****
 1  2  3  4  5  16  17  18  19  20  21  22  23  24 0
 3-21G
 ****
 26  27  29  30  31  38  39 41  42  43  44  45  46  47  48 0
 3-21G
 ****


