%nproc=1
%NoSave
%Mem=1900MB
#P OB98/GEN NMR

erre ene a

0 1
  C      -33.416      17.048     -23.948
  O      -32.436      17.828     -24.609
  P      -31.098      18.177     -23.793
  C      -30.644      19.160     -21.424
  O      -31.543      19.044     -22.520
  C      -31.420      19.207     -20.111
  O      -32.238      18.029     -19.975
  C      -30.551      19.244     -18.862
  O      -29.990      20.532     -18.664
  C      -31.564      18.821     -17.804
  O      -32.402      19.933     -17.451
  C      -32.384      17.759     -18.555
  N      -32.418      13.948     -15.136
  C      -32.927      15.200     -15.096
  N      -32.858      16.163     -16.037
  C      -32.186      15.727     -17.114
  C      -31.592      14.489     -17.290
  C      -31.731      13.570     -16.238
  N      -31.206      12.295     -16.282
  N      -30.969      14.413     -18.517
  C      -31.192      15.582     -19.078
  N      -31.935      16.406     -18.277
  O      -30.366      19.244     -24.730
  O      -30.222      17.002     -23.489
  H      -33.030      19.619     -16.770
  H      -29.395      19.150     -24.674
  H      -33.463      15.461     -14.188
  H      -30.843      15.876     -20.060
  H      -33.453      17.807     -18.317
  H      -31.097      18.455     -16.883
  H      -29.749      18.498     -18.932
  H      -32.082      20.084     -20.140
  H      -30.062      20.081     -21.525
  H      -31.222      11.756     -15.430
  H      -30.576      12.067     -17.040
  H      -29.953      18.311     -21.441
  P      -28.831      20.668     -17.563
  C      -29.027      20.058     -15.075
  O      -29.632      20.723     -16.170
  O      -28.373      22.185     -17.761
  O      -27.754      19.644     -17.654
  H      -29.130      22.796     -17.788
  H      -29.644      20.217     -14.187
  H      -28.028      20.462     -14.892
  H      -28.966      18.985     -15.275
  H      -34.248      16.892     -24.602
  H      -33.745      17.560     -23.068
  H      -32.995      16.103     -23.675

 3  4  5  6  7  8  9  10  11  12  22  25  29  30  31  32 0
 6-311+G(2d,p)
 ****
 33  36  37 0
 6-311+G(2d,p)
 ****
 1  2  13  14  15  16  17  18  19  20  21  23  24  26 0
 3-21G
 ****
 27  28  34  35  38  39  40  41  42  43  44  45  46  47  48 0
 3-21G
 ****


