%nproc=1
%NoSave
%Mem=1900MB
#P OB98/GEN NMR

erre ene a

0 1
  C      409.032     -26.449    -122.667
  O      410.378     -26.924    -122.528
  P      410.868     -28.361    -123.049
  C      413.332     -28.438    -123.841
  O      412.436     -28.497    -122.738
  C      414.758     -28.132    -123.373
  O      414.836     -26.781    -122.855
  C      415.263     -28.995    -122.223
  O      415.576     -30.314    -122.637
  C      416.467     -28.182    -121.748
  O      417.634     -28.472    -122.527
  C      416.006     -26.733    -122.005
  N      415.738     -25.997    -120.782
  C      416.658     -25.008    -120.430
  O      417.682     -24.845    -121.094
  N      416.402     -24.235    -119.321
  C      415.376     -24.503    -118.572
  N      415.163     -23.694    -117.500
  C      414.457     -25.628    -118.833
  C      414.692     -26.323    -119.944
  O      410.512     -28.640    -124.472
  O      410.183     -29.422    -122.063
  H      410.080     -30.278    -122.526
  H      418.339     -27.867    -122.214
  H      413.634     -25.837    -118.164
  H      414.052     -27.158    -120.221
  H      416.765     -26.199    -122.588
  H      416.715     -28.391    -120.700
  H      414.505     -29.023    -121.431
  H      415.429     -28.215    -124.238
  H      415.802     -22.928    -117.355
  H      412.998     -27.637    -124.511
  H      414.379     -23.802    -116.868
  H      413.293     -29.389    -124.387
  P      414.661     -31.497    -122.054
  C      415.523     -33.222    -123.794
  O      415.365     -32.887    -122.425
  O      413.357     -31.461    -122.987
  O      414.299     -31.342    -120.611
  H      412.565     -31.633    -122.447
  H      416.388     -33.882    -123.893
  H      415.674     -32.335    -124.411
  H      414.631     -33.756    -124.136
  H      408.954     -25.469    -122.244
  H      408.365     -27.112    -122.156
  H      408.772     -26.412    -123.704

 3  4  5  6  7  8  9  10  11  12  13  24  27  28  29  30  32 0
 6-311+G(2d,p)
 ****
 34  35 0
 6-311+G(2d,p)
 ****
 1  2  14  15  16  17  18  19  20  21  22  23  25  26 0
 3-21G
 ****
 31  33  36  37  38  39  40  41  42  43  44  45  46 0
 3-21G
 ****


