%nproc=1
%NoSave
%Mem=1900MB
#P OB98/GEN NMR

erre ene a

0 1
  C      662.267    -687.800     -88.313
  O      661.662    -686.537     -88.644
  P      660.626    -685.940     -87.577
  C      661.603    -683.534     -87.748
  O      661.299    -684.635     -86.889
  C      661.471    -682.189     -86.969
  O      660.094    -681.695     -87.114
  C      661.771    -682.266     -85.461
  O      662.436    -681.053     -85.076
  C      660.377    -682.246     -84.842
  O      660.438    -681.807     -83.491
  C      659.642    -681.326     -85.790
  N      655.486    -679.788     -83.356
  C      656.781    -679.322     -83.271
  N      656.985    -678.345     -82.372
  N      657.778    -679.807     -83.986
  C      657.377    -680.755     -84.858
  C      656.130    -681.299     -85.097
  C      655.054    -680.772     -84.238
  O      653.871    -681.185     -84.244
  N      656.143    -682.261     -86.050
  C      657.405    -682.333     -86.426
  N      658.205    -681.426     -85.733
  O      660.603    -687.004     -86.391
  O      659.233    -685.711     -88.126
  H      661.109    -682.347     -83.028
  H      659.702    -687.350     -86.251
  H      654.747    -679.415     -82.784
  H      657.812    -682.999     -87.171
  H      659.903    -680.287     -85.647
  H      659.985    -683.269     -84.827
  H      656.257    -677.887     -81.825
  H      662.372    -683.116     -85.173
  H      657.956    -677.958     -82.308
  H      662.115    -681.448     -87.462
  H      660.937    -683.526     -88.604
  H      662.621    -683.647     -88.085
  P      663.353    -681.105     -83.767
  C      665.555    -680.453     -84.982
  O      664.845    -681.437     -84.267
  O      662.887    -682.484     -83.061
  O      663.252    -679.949     -82.857
  H      663.059    -682.436     -82.077
  H      665.064    -679.497     -84.989
  H      665.633    -680.770     -86.045
  H      666.554    -680.363     -84.559
  H      662.934    -688.092     -89.097
  H      661.504    -688.542     -88.199
  H      662.812    -687.705     -87.397

 3  4  5  6  7  8  9  10  11  12  23  26  30  31  33  0
 6-311+G(2d,p)
 ****
 35  36  37  38 0
 6-311+G(2d,p)
 ****
 1  2  13  14  15  16  17  18  19  20  21  22  24  25  27  28  29 0
 3-21G
 ****
 32  34  39  40  41  42  43  44  45  46  47  48  49 0
 3-21G
 ****


