%nproc=1
%NoSave
%Mem=1900MB
#P OB98/GEN NMR

erre ene a

0 1
  C      567.646     301.165      79.058
  O      566.302     301.560      79.253
  H      568.271     301.637      79.829
  H      567.991     301.494      78.075
  H      567.746     300.078      79.146
  P      565.195     300.816      78.359
  C      565.100     298.965      80.178
  O      565.225     299.271      78.792
  C      563.670     298.510      80.492
  O      563.224     297.545      79.507
  C      563.514     297.838      81.851
  O      563.375     298.795      82.899
  C      562.218     297.071      81.629
  O      561.094     297.979      81.713
  C      562.392     296.569      80.188
  N      561.553     291.619      79.505
  C      560.655     292.668      79.563
  N      559.345     292.356      79.431
  N      561.005     293.916      79.742
  C      562.345     294.078      79.868
  C      563.335     293.121      79.823
  C      562.930     291.744      79.614
  O      563.680     290.776      79.532
  N      564.577     293.669      79.985
  C      564.343     294.957      80.143
  N      563.010     295.256      80.090
  O      565.856     300.792      76.894
  O      563.852     301.455      78.338
  H      561.163     298.435      82.570
  H      565.148     300.908      76.230
  H      561.224     290.671      79.372
  H      565.109     295.706      80.295
  H      561.436     296.518      79.650
  H      562.056     296.294      82.378
  H      559.009     291.410      79.336
  H      564.325     297.129      82.050
  H      558.675     293.112      79.442
  H      563.014     299.386      80.406
  H      565.329     299.858      80.766
  H      565.810     298.171      80.434
  P      564.272     298.584      84.211
  C      566.088     300.239      83.377
  O      565.779     298.905      83.767
  O      564.275     296.989      84.400
  O      563.778     299.297      85.430
  H      564.460     296.769      85.329
  H      567.122     300.302      83.109
  H      565.889     300.904      84.191
  H      565.485     300.514      82.537

 6  7  8  9  10  11  12  13  14  15  26  29  33  34 0
 6-311+G(2d,p)
 ****
 36  38  39  40  41 0
 6-311+G(2d,p)
 ****
 1  2  3  4  5  16  17  18  19  20  21  22  23  24  25 0
 3-21G
 ****
 27  28  30  31  32  35  37  42  43  44  45  46  47 0
 3-21G
 ****
 48  49 0
 3-21G
 ****


