%nproc=1
%NoSave
%Mem=1900MB
#P OB98/GEN NMR

erre ene a

0 1
  C       49.435    -188.986    -264.160
  O       48.488    -187.911    -263.999
  P       46.923    -188.258    -263.886
  C       46.662    -188.270    -261.290
  O       46.314    -187.663    -262.526
  C       46.540    -187.273    -260.126
  O       47.408    -186.124    -260.358
  C       45.122    -186.724    -259.905
  O       44.976    -186.491    -258.492
  C       45.163    -185.399    -260.647
  O       44.144    -184.494    -260.240
  C       46.584    -184.939    -260.302
  N       47.110    -183.900    -261.193
  C       46.540    -182.633    -261.118
  O       45.586    -182.339    -260.407
  N       47.096    -181.681    -261.940
  C       48.109    -181.882    -262.833
  O       48.542    -180.996    -263.559
  C       48.653    -183.243    -262.887
  C       48.139    -184.173    -262.082
  O       46.954    -189.835    -263.584
  O       46.113    -187.986    -265.115
  H       44.169    -184.455    -259.265
  H       46.301    -190.289    -264.147
  H       46.707    -180.755    -261.892
  H       49.463    -183.445    -263.576
  H       48.534    -185.186    -262.096
  H       46.614    -184.582    -259.273
  H       45.037    -185.584    -261.722
  H       44.339    -187.398    -260.261
  H       46.910    -187.767    -259.215
  H       47.695    -188.627    -261.340
  H       46.008    -189.127    -261.118
  P       43.794    -187.260    -257.710
  C       44.707    -189.708    -257.512
  O       44.471    -188.459    -256.896
  O       43.083    -188.009    -258.940
  O       42.871    -186.367    -256.952
  H       43.718    -188.435    -259.541
  H       45.076    -189.584    -258.537
  H       43.781    -190.292    -257.523
  H       45.460    -190.251    -256.936
  H       50.425    -188.584    -264.218
  H       49.215    -189.524    -265.059
  H       49.368    -189.649    -263.323

 3  4  5  6  7  8  9  10  11  12  13  23  28  29  30  31  32 0
 6-311+G(2d,p)
 ****
 33  34 0
 6-311+G(2d,p)
 ****
 1  2  14  15  16  17  18  19  20  21  22  24  25  26 0
 3-21G
 ****
 27  35  36  37  38  39  40  41  42  43  44  45 0
 3-21G
 ****


