%nproc=1
%NoSave
%Mem=1900MB
#P OB98/GEN NMR

erre ene a

0 1
  C      -32.974     161.623      62.745
  O      -34.334     161.840      62.429
  H      -32.678     160.639      62.374
  H      -32.847     161.641      63.830
  H      -32.337     162.383      62.282
  P      -34.877     163.347      62.516
  C      -36.139     163.162      64.777
  O      -35.023     163.694      64.079
  C      -35.826     163.041      66.268
  O      -35.086     164.229      66.686
  C      -37.072     162.931      67.166
  O      -36.780     162.042      68.253
  C      -37.210     164.335      67.724
  O      -37.935     164.362      68.947
  C      -35.743     164.730      67.864
  N      -34.978     168.360      71.245
  C      -34.890     166.987      71.366
  N      -34.615     166.494      72.592
  N      -35.063     166.163      70.367
  C      -35.315     166.787      69.192
  C      -35.430     168.131      68.942
  C      -35.256     169.036      70.057
  O      -35.341     170.259      70.018
  N      -35.755     168.360      67.625
  C      -35.852     167.154      67.090
  N      -35.596     166.168      68.002
  O      -36.393     163.202      62.019
  O      -34.120     164.347      61.708
  H      -38.837     164.022      68.777
  H      -36.448     163.397      61.065
  H      -34.854     168.950      72.049
  H      -36.123     166.945      66.066
  H      -35.267     164.274      68.743
  H      -37.725     164.978      66.998
  H      -34.438     167.067      73.404
  H      -37.969     162.588      66.640
  H      -34.507     165.491      72.688
  H      -35.163     162.181      66.421
  H      -36.370     162.167      64.380
  H      -37.006     163.812      64.621
  P      -37.271     160.521      68.136
  C      -39.348     160.557      69.705
  O      -38.856     160.475      68.374
  O      -36.682     159.848      69.465
  O      -36.788     159.821      66.909
  H      -36.430     158.923      69.282
  H      -40.417     160.513      69.693
  H      -39.034     161.480      70.145
  H      -38.963     159.740      70.278

 6  7  8  9  10  11  12  13  14  15  26  29  33  34 0
 6-311+G(2d,p)
 ****
 36  38  39  40  41 0
 6-311+G(2d,p)
 ****
 1  2  3  4  5  16  17  18  19  20  21  22  23  24  25 0
 3-21G
 ****
 27  28  30  31  32  35  37  42  43  44  45  46  47 0
 3-21G
 ****
 48  49 0
 3-21G
 ****


