%nproc=1
%NoSave
%Mem=1900MB
#P OB98/GEN NMR

erre ene a

0 1
  C      -70.679     -25.536    -148.037
  O      -69.790     -26.615    -147.835
  H      -70.265     -24.875    -148.801
  H      -70.782     -24.973    -147.106
  H      -71.659     -25.891    -148.368
  P      -70.358     -27.901    -147.065
  C      -71.460     -29.111    -149.079
  O      -70.399     -29.098    -148.136
  C      -71.873     -30.548    -149.397
  O      -73.168     -30.521    -150.072
  C      -70.887     -31.298    -150.309
  O      -70.832     -32.671    -149.900
  C      -71.568     -31.234    -151.664
  O      -71.138     -32.274    -152.535
  C      -73.032     -31.338    -151.250
  N      -74.725     -32.618    -155.796
  C      -73.994     -33.340    -154.876
  N      -73.595     -34.577    -155.240
  N      -73.674     -32.885    -153.693
  C      -74.151     -31.641    -153.448
  C      -74.881     -30.823    -154.273
  C      -75.216     -31.330    -155.589
  O      -75.842     -30.732    -156.455
  N      -75.119     -29.609    -153.677
  C      -74.516     -29.691    -152.504
  N      -73.914     -30.903    -152.320
  O      -71.902     -27.530    -146.856
  O      -69.683     -28.223    -145.775
  H      -70.189     -32.137    -152.730
  H      -72.029     -27.132    -145.974
  H      -74.931     -33.008    -156.700
  H      -74.470     -28.900    -151.769
  H      -73.325     -32.364    -150.992
  H      -71.360     -30.271    -152.144
  H      -73.828     -35.008    -156.122
  H      -69.878     -30.873    -150.317
  H      -73.091     -35.133    -154.559
  H      -72.017     -31.089    -148.455
  H      -71.129     -28.623    -150.002
  H      -72.310     -28.552    -148.673
  P      -69.687     -33.102    -148.864
  C      -70.670     -32.078    -146.684
  O      -70.343     -33.254    -147.409
  O      -68.801     -31.774    -148.731
  O      -68.866     -34.263    -149.320
  H      -67.864     -32.013    -148.607
  H      -71.096     -32.348    -145.740
  H      -71.377     -31.500    -147.242
  H      -69.784     -31.500    -146.524

 6  7  8  9  10  11  12  13  14  15  26  29  33  34 0
 6-311+G(2d,p)
 ****
 36  38  39  40  41 0
 6-311+G(2d,p)
 ****
 1  2  3  4  5  16  17  18  19  20  21  22  23  24  25 0
 3-21G
 ****
 27  28  30  31  32  35  37  42  43  44  45  46  47 0
 3-21G
 ****
 48  49 0
 3-21G
 ****


