%nproc=1
%NoSave
%Mem=1900MB
#P OB98/GEN NMR

erre ene a

0 1
  C      186.896    -890.329     -46.231
  O      188.063    -891.151     -46.385
  P      188.066    -892.599     -45.696
  C      188.237    -894.129     -47.790
  O      188.890    -893.604     -46.647
  C      189.186    -894.102     -49.003
  O      189.406    -892.753     -49.471
  C      190.570    -894.659     -48.702
  O      190.589    -896.070     -48.783
  C      191.381    -894.060     -49.831
  O      191.182    -894.829     -51.040
  C      190.772    -892.667     -49.970
  N      194.711    -889.486     -50.128
  C      194.258    -890.400     -51.069
  N      194.955    -890.463     -52.234
  N      193.209    -891.178     -50.900
  C      192.600    -890.982     -49.690
  C      192.961    -890.118     -48.667
  C      194.125    -889.286     -48.875
  O      194.581    -888.478     -48.079
  N      192.101    -890.218     -47.622
  C      191.230    -891.138     -47.986
  N      191.496    -891.641     -49.241
  O      186.547    -893.085     -45.899
  O      188.458    -892.608     -44.255
  H      191.482    -894.268     -51.781
  H      186.302    -893.703     -45.184
  H      195.524    -888.926     -50.315
  H      190.381    -891.456     -47.395
  H      190.721    -892.332     -51.022
  H      192.468    -894.070     -49.622
  H      195.736    -889.858     -52.449
  H      190.948    -894.301     -47.722
  H      194.613    -891.094     -52.952
  H      188.732    -894.692     -49.815
  H      187.335    -893.548     -48.032
  H      187.903    -895.145     -47.579
  P      190.425    -896.920     -47.419
  C      189.332    -898.990     -48.546
  O      190.445    -898.450     -47.844
  O      188.887    -896.640     -47.029
  O      191.355    -896.520     -46.319
  H      188.800    -896.640     -46.049
  H      189.602    -900.000     -48.896
  H      189.098    -898.380     -49.427
  H      188.462    -899.050     -47.895
  H      187.043    -889.401     -46.743
  H      186.727    -890.140     -45.191
  H      186.048    -890.833     -46.644

 3  4  5  6  7  8  9  10  11  12  23  26  30  31 0
 6-311+G(2d,p)
 ****
 33  35  36  37  38 0
 6-311+G(2d,p)
 ****
 1  2  13  14  15  16  17  18  19  20  21  22  24  25 0
 3-21G
 ****
 27  28  29  32  34  39  40  41  42  43  44  45  46  47  48  49 0
 3-21G
 ****


