%nproc=1
%NoSave
%Mem=1900MB
#P OB98/GEN NMR

erre ene a

0 1
  C      117.026    -243.126    -831.935
  O      117.144    -241.713    -831.912
  P      118.557    -241.069    -832.333
  C      117.742    -240.388    -834.715
  O      118.226    -239.954    -833.439
  C      116.443    -239.676    -835.067
  O      115.422    -240.029    -834.109
  C      116.515    -238.165    -835.048
  O      117.090    -237.635    -836.238
  C      115.049    -237.784    -834.949
  O      114.443    -237.840    -836.247
  C      114.485    -238.914    -834.032
  N      111.572    -239.312    -829.927
  C      111.405    -239.874    -831.184
  N      110.345    -240.679    -831.363
  N      112.235    -239.666    -832.178
  C      113.284    -238.869    -831.848
  C      113.539    -238.257    -830.632
  C      112.583    -238.461    -829.558
  O      112.643    -237.936    -828.449
  N      114.705    -237.537    -830.681
  C      115.174    -237.749    -831.905
  N      114.329    -238.533    -832.651
  O      119.232    -242.237    -833.196
  O      119.414    -240.645    -831.199
  H      114.634    -238.728    -836.611
  H      120.211    -242.165    -833.166
  H      110.908    -239.531    -829.196
  H      116.118    -237.361    -832.268
  H      113.533    -239.286    -834.396
  H      114.886    -236.775    -834.541
  H      109.747    -240.983    -830.593
  H      117.061    -237.800    -834.158
  H      110.237    -241.136    -832.248
  H      116.119    -240.040    -836.057
  H      117.565    -241.474    -834.682
  H      118.527    -240.180    -835.459
  P      117.875    -236.234    -836.124
  C      120.074    -237.426    -835.426
  O      119.420    -236.591    -836.360
  O      117.764    -235.898    -834.559
  O      117.295    -235.147    -836.974
  H      117.817    -234.925    -834.423
  H      119.409    -238.206    -835.035
  H      120.439    -236.821    -834.592
  H      120.921    -237.892    -835.910
  H      116.038    -243.406    -831.633
  H      117.739    -243.554    -831.262
  H      117.211    -243.483    -832.926

 3  4  5  6  7  8  9  10  11  12  23  26  30  31  33  0
 6-311+G(2d,p)
 ****
 35  36  37  38 0
 6-311+G(2d,p)
 ****
 1  2  13  14  15  16  17  18  19  20  21  22  24  25  27  28  29 0
 3-21G
 ****
 32  34  39  40  41  42  43  44  45  46  47  48  49 0
 3-21G
 ****


