%nproc=1
%NoSave
%Mem=1900MB
#P OB98/GEN NMR

erre ene a

0 1
  C      -78.576    -257.014      38.659
  O      -78.628    -258.055      37.698
  P      -77.285    -258.700      37.101
  C      -78.172    -258.071      34.772
  O      -77.081    -257.986      35.680
  C      -77.866    -257.277      33.505
  O      -77.884    -255.868      33.836
  C      -76.493    -257.522      32.880
  O      -76.431    -258.649      32.017
  C      -76.327    -256.252      32.057
  O      -77.087    -256.356      30.840
  C      -76.937    -255.190      32.974
  N      -73.869    -251.110      33.313
  C      -74.778    -251.483      32.386
  N      -75.543    -252.595      32.358
  C      -75.327    -253.343      33.452
  C      -74.438    -253.092      34.483
  C      -73.683    -251.910      34.388
  N      -72.772    -251.521      35.346
  N      -74.484    -254.101      35.424
  C      -75.396    -254.937      34.972
  N      -75.939    -254.519      33.788
  O      -77.266    -260.187      37.091
  O      -76.116    -258.069      37.990
  H      -76.784    -257.164      30.383
  H      -75.298    -258.591      37.884
  H      -74.907    -250.798      31.551
  H      -75.690    -255.853      35.462
  H      -77.489    -254.422      32.420
  H      -75.288    -256.066      31.767
  H      -75.707    -257.563      33.643
  H      -78.664    -257.463      32.778
  H      -79.057    -257.644      35.257
  H      -72.375    -250.600      35.260
  H      -72.754    -252.031      36.219
  H      -78.378    -259.119      34.540
  P      -74.977    -259.086      31.486
  C      -75.747    -258.331      29.102
  O      -74.763    -258.289      30.112
  O      -74.757    -260.556      31.416
  O      -73.991    -258.339      32.503
  H      -73.987    -257.371      32.441
  H      -75.489    -257.604      28.327
  H      -76.731    -258.077      29.503
  H      -75.780    -259.327      28.651
  H      -79.571    -256.725      38.926
  H      -78.060    -256.173      38.246
  H      -78.058    -257.358      39.530

 3  4  5  6  7  8  9  10  11  12  22  25  29  30  31  32 0
 6-311+G(2d,p)
 ****
 33  36  37 0
 6-311+G(2d,p)
 ****
 1  2  13  14  15  16  17  18  19  20  21  23  24  26 0
 3-21G
 ****
 27  28  34  35  38  39  40  41  42  43  44  45  46  47  48 0
 3-21G
 ****


