%nproc=1
%NoSave
%Mem=1900MB
#P OB98/GEN NMR

erre ene a

0 1
  C     -158.030     183.187    -131.522
  O     -157.416     184.460    -131.299
  P     -158.368     185.753    -131.331
  C     -159.674     185.150    -129.140
  O     -158.775     186.025    -129.804
  C     -160.188     185.803    -127.856
  O     -161.295     185.047    -127.308
  C     -159.154     185.876    -126.742
  O     -158.193     186.888    -126.994
  C     -160.054     186.130    -125.536
  O     -160.411     187.518    -125.464
  C     -161.295     185.281    -125.879
  N     -161.358     184.032    -125.133
  C     -162.527     183.815    -124.411
  O     -163.452     184.625    -124.370
  N     -162.589     182.639    -123.714
  C     -161.607     181.693    -123.650
  O     -161.726     180.652    -123.019
  C     -160.377     181.999    -124.394
  C     -160.308     183.137    -125.092
  O     -159.691     185.146    -131.993
  O     -157.764     186.904    -132.060
  H     -159.859     184.225    -131.728
  H     -160.823     187.741    -126.323
  H     -163.434     182.456    -123.196
  H     -159.567     181.284    -124.345
  H     -159.406     183.382    -125.644
  H     -162.211     185.849    -125.666
  H     -159.568     185.868    -124.592
  H     -158.656     184.906    -126.634
  H     -160.547     186.809    -128.108
  H     -159.167     184.213    -128.888
  H     -160.498     184.909    -129.818
  P     -156.662     186.528    -126.662
  C     -155.927     186.075    -129.129
  O     -155.818     186.880    -127.977
  O     -156.715     184.928    -126.648
  O     -156.165     187.140    -125.393
  H     -157.224     184.561    -127.388
  H     -155.575     186.646    -129.992
  H     -156.962     185.769    -129.308
  H     -155.299     185.187    -129.014
  H     -157.286     182.419    -131.474
  H     -158.491     183.177    -132.488
  H     -158.772     183.013    -130.771

 3  4  5  6  7  8  9  10  11  12  13  24  28  29  30  31  32 0
 6-311+G(2d,p)
 ****
 33  34 0
 6-311+G(2d,p)
 ****
 1  2  14  15  16  17  18  19  20  21  22  23  25  26  27 0
 3-21G
 ****
 35  36  37  38  39  40  41  42  43  44  45 0
 3-21G
 ****


