%nproc=1
%NoSave
%Mem=1900MB
#P OB98/GEN NMR

erre ene a

0 1
  C      132.387     448.810     197.092
  O      133.324     449.051     196.038
  P      133.455     447.899     194.927
  C      136.022     448.282     194.991
  O      134.867     448.085     194.186
  C      137.066     449.120     194.244
  O      136.779     450.527     194.302
  C      138.476     448.956     194.796
  O      139.049     447.754     194.312
  C      139.166     450.206     194.261
  O      139.627     450.015     192.910
  C      138.041     451.253     194.300
  N      140.729     454.829     196.682
  C      141.082     454.016     195.619
  N      142.319     454.203     195.102
  N      140.293     453.110     195.107
  C      139.086     453.038     195.723
  C      138.612     453.809     196.760
  C      139.498     454.809     197.323
  O      139.224     455.569     198.242
  N      137.315     453.488     197.076
  C      137.055     452.440     196.310
  N      138.075     452.168     195.426
  O      132.380     448.325     193.823
  O      133.187     446.530     195.457
  H      140.050     450.834     192.598
  H      131.628     447.700     193.832
  H      141.378     455.511     197.037
  H      136.141     451.866     196.340
  H      138.044     451.879     193.400
  H      140.044     450.469     194.856
  H      142.976     454.887     195.445
  H      138.458     448.972     195.897
  H      142.591     453.620     194.319
  H      137.037     448.811     193.188
  H      136.456     447.319     195.266
  H      135.723     448.772     195.923
  P      139.804     446.804     195.362
  C      142.193     446.782     194.349
  O      140.990     446.073     194.581
  O      138.736     445.636     195.624
  O      140.186     447.474     196.637
  H      138.687     445.443     196.578
  H      143.023     446.071     194.319
  H      142.386     447.520     195.135
  H      142.127     447.294     193.385
  H      132.387     449.641     197.766
  H      132.665     447.922     197.620
  H      131.408     448.687     196.678

 3  4  5  6  7  8  9  10  11  12  23  26  30  31 0
 6-311+G(2d,p)
 ****
 33  35  36  37  38 0
 6-311+G(2d,p)
 ****
 1  2  13  14  15  16  17  18  19  20  21  22  24  25 0
 3-21G
 ****
 27  28  29  32  34  39  40  41  42  43  44  45  46  47  48  49 0
 3-21G
 ****


