%nproc=1
%NoSave
%Mem=1900MB
#P OB98/GEN NMR

erre ene a

0 1
  C     -175.871    -441.671    -407.338
  O     -176.011    -440.315    -407.731
  P     -175.297    -439.214    -406.807
  C     -177.658    -438.519    -405.937
  O     -176.324    -438.886    -405.621
  C     -178.615    -439.094    -404.891
  O     -178.384    -440.513    -404.736
  C     -178.469    -438.486    -403.503
  O     -179.171    -437.257    -403.425
  C     -179.057    -439.585    -402.621
  O     -180.496    -439.527    -402.619
  C     -178.557    -440.856    -403.330
  N     -176.560    -443.959    -399.873
  C     -177.862    -443.520    -400.028
  N     -178.770    -444.022    -399.167
  N     -178.240    -442.678    -400.951
  C     -177.224    -442.249    -401.735
  C     -175.892    -442.590    -401.672
  C     -175.497    -443.570    -400.682
  O     -174.375    -444.058    -400.566
  N     -175.156    -441.938    -402.624
  C     -176.051    -441.226    -403.283
  N     -177.320    -441.391    -402.798
  O     -175.317    -437.905    -407.717
  O     -173.915    -439.572    -406.340
  H     -180.822    -439.705    -403.520
  H     -174.458    -437.775    -408.160
  H     -176.325    -444.618    -399.157
  H     -175.828    -440.586    -404.125
  H     -179.301    -441.664    -403.290
  H     -178.738    -439.499    -401.583
  H     -178.547    -444.660    -398.413
  H     -177.411    -438.344    -403.255
  H     -179.728    -443.713    -399.261
  H     -179.640    -438.966    -405.265
  H     -177.919    -438.914    -406.919
  H     -177.730    -437.427    -405.962
  P     -178.332    -435.948    -403.027
  C     -179.985    -435.315    -401.126
  O     -178.652    -435.635    -401.490
  O     -179.076    -434.777    -403.822
  O     -176.881    -436.013    -403.378
  H     -178.417    -434.121    -404.128
  H     -180.152    -435.638    -400.101
  H     -180.714    -435.805    -401.774
  H     -180.124    -434.231    -401.185
  H     -176.390    -442.299    -408.032
  H     -176.284    -441.803    -406.360
  H     -174.834    -441.933    -407.326

 3  4  5  6  7  8  9  10  11  12  23  26  30  31 0
 6-311+G(2d,p)
 ****
 33  35  36  37  38 0
 6-311+G(2d,p)
 ****
 1  2  13  14  15  16  17  18  19  20  21  22  24  25 0
 3-21G
 ****
 27  28  29  32  34  39  40  41  42  43  44  45  46  47  48  49 0
 3-21G
 ****


