%nproc=1
%NoSave
%Mem=1900MB
#P OB98/GEN NMR

erre ene a

0 1
  C      -59.231     256.770     110.161
  O      -59.250     255.650     109.300
  H      -60.142     257.350     110.002
  H      -58.368     257.400     109.931
  H      -59.192     256.453     111.207
  P      -58.098     254.554     109.518
  C      -59.270     252.684     110.885
  O      -58.423     253.823     110.910
  C      -58.621     251.528     111.641
  O      -57.523     250.981     110.877
  C      -58.044     251.912     112.999
  O      -59.043     251.935     114.010
  C      -57.066     250.770     113.220
  O      -57.782     249.588     113.629
  C      -56.484     250.578     111.814
  N      -51.733     251.507     113.316
  C      -52.677     250.644     113.839
  N      -52.305     249.933     114.925
  N      -53.879     250.494     113.348
  C      -54.116     251.277     112.269
  C      -53.262     252.168     111.658
  C      -51.935     252.319     112.206
  O      -51.052     253.052     111.768
  N      -53.856     252.773     110.582
  C      -55.072     252.265     110.551
  N      -55.283     251.357     111.560
  O      -56.805     255.437     109.860
  O      -57.846     253.650     108.360
  H      -58.192     249.792     114.490
  H      -56.020     255.007     109.473
  H      -50.826     251.593     113.740
  H      -55.832     252.517     109.826
  H      -56.238     249.532     111.602
  H      -56.335     250.987     113.999
  H      -51.413     250.037     115.382
  H      -57.494     252.859     112.949
  H      -52.967     249.269     115.306
  H      -59.371     250.734     111.750
  H      -59.440     252.385     109.846
  H      -60.229     252.943     111.344
  P      -58.718     252.746     115.358
  C      -59.445     255.106     114.556
  O      -58.367     254.240     114.888
  O      -57.298     252.155     115.800
  O      -59.741     252.619     116.434
  H      -57.165     252.287     116.759
  H      -59.059     256.060     114.263
  H      -60.082     255.225     115.407
  H      -60.005     254.685     113.747

 6  7  8  9  10  11  12  13  14  15  26  29  33  34 0
 6-311+G(2d,p)
 ****
 36  38  39  40  41 0
 6-311+G(2d,p)
 ****
 1  2  3  4  5  16  17  18  19  20  21  22  23  24  25 0
 3-21G
 ****
 27  28  30  31  32  35  37  42  43  44  45  46  47 0
 3-21G
 ****
 48  49 0
 3-21G
 ****


