%nproc=1
%NoSave
%Mem=1900MB
#P OB98/GEN NMR

erre ene a

0 1
  C      182.736    -565.666     -55.077
  O      182.582    -565.798     -53.678
  H      181.749    -565.559     -55.530
  H      183.214    -566.560     -55.484
  H      183.334    -564.782     -55.320
  P      183.912    -565.732     -52.784
  C      184.054    -568.324     -52.964
  O      184.730    -567.083     -53.087
  C      185.066    -569.463     -52.818
  O      186.180    -568.984     -52.009
  C      184.503    -570.712     -52.129
  O      185.102    -571.865     -52.734
  C      185.007    -570.580     -50.705
  O      185.080    -571.812     -50.000
  C      186.378    -569.934     -50.942
  N      186.909    -569.286     -49.746
  C      188.289    -569.253     -49.594
  O      189.101    -569.656     -50.429
  N      188.741    -568.724     -48.410
  C      187.966    -568.262     -47.387
  O      188.433    -567.820     -46.342
  C      186.512    -568.329     -47.605
  C      186.062    -568.831     -48.756
  O      183.356    -565.962     -51.301
  O      184.712    -564.480     -52.910
  H      183.126    -565.106     -50.888
  H      184.165    -572.071     -49.764
  H      189.740    -568.695     -48.283
  H      185.868    -567.982     -46.808
  H      184.992    -568.915     -48.938
  H      187.092    -570.686     -51.304
  H      184.355    -569.903     -50.140
  H      183.411    -570.796     -52.175
  H      185.468    -569.702     -53.806
  H      183.450    -568.497     -53.861
  H      183.388    -568.287     -52.094
  P      184.171    -572.776     -53.674
  C      183.932    -574.275     -51.534
  O      183.309    -573.687     -52.672
  O      185.243    -573.773     -54.302
  O      183.386    -571.977     -54.662
  H      185.956    -574.006     -53.680
  H      183.210    -574.843     -50.986
  H      184.330    -573.504     -50.907
  H      184.724    -574.919     -51.854

 6  7  8  9  10  11  12  13  14  15  16  27  31  32  33  34  35 0
 6-311+G(2d,p)
 ****
 36  37 0
 6-311+G(2d,p)
 ****
 1  2  3  4  5  17  18  19  20  21  22  23  24  25 0
 3-21G
 ****
 26  28  29  30  38  39  40  41  42  43  44  45 0
 3-21G
 ****


