%nproc=1
%NoSave
%Mem=1900MB
#P OB98/GEN NMR

erre ene a

0 1
  C      -35.915       8.739     313.541
  O      -34.785       9.457     314.003
  H      -36.221       8.029     314.315
  H      -35.675       8.177     312.634
  H      -36.743       9.424     313.344
  P      -34.051      10.452     312.984
  C      -31.977       8.914     312.816
  O      -33.058       9.533     312.126
  C      -31.671       7.555     312.195
  O      -32.865       6.751     312.135
  C      -31.163       7.650     310.761
  O      -29.814       8.070     310.732
  C      -31.422       6.240     310.272
  O      -30.399       5.337     310.713
  C      -32.772       5.918     310.955
  N      -33.915       6.130     310.075
  C      -34.323       5.022     309.323
  O      -33.737       3.947     309.427
  N      -35.376       5.174     308.455
  C      -35.978       6.318     308.357
  N      -37.013       6.402     307.480
  C      -35.587       7.504     309.141
  C      -34.556       7.342     309.968
  O      -33.410      11.671     313.573
  O      -35.199      10.826     311.932
  H      -29.551       5.751     310.458
  H      -35.690      11.615     312.227
  H      -36.122       8.437     309.033
  H      -34.205       8.165     310.584
  H      -32.792       4.878     311.301
  H      -31.458       6.193     309.186
  H      -31.795       8.331     310.184
  H      -30.946       7.038     312.837
  H      -37.240       5.563     306.954
  H      -32.286       8.791     313.859
  H      -37.607       7.209     307.385
  H      -31.086       9.550     312.790
  P      -29.434       9.563     310.286
  C      -27.721       8.609     308.609
  O      -28.873       9.430     308.787
  O      -28.557      10.308     311.236
  O      -30.866      10.253     310.072
  H      -31.303      10.449     310.934
  H      -27.446       8.600     307.575
  H      -27.941       7.612     308.928
  H      -26.912       8.999     309.190

 6  7  8  9  10  11  12  13  14  15  16  26  30  31  32  33  35 0
 6-311+G(2d,p)
 ****
 37  38 0
 6-311+G(2d,p)
 ****
 1  2  3  4  5  17  18  19  20  21  22  23  24  25 0
 3-21G
 ****
 27  28  29  34  36  39  40  41  42  43  44  45  46 0
 3-21G
 ****


