%nproc=1
%NoSave
%Mem=1900MB
#P OB98/GEN NMR

erre ene a

0 1
  C      -97.131     263.702     254.457
  O      -96.178     264.730     254.280
  H      -96.714     262.952     255.136
  H      -97.348     263.227     253.497
  H      -98.050     264.103     254.895
  P      -96.662     266.029     253.464
  C      -95.676     267.164     251.311
  O      -95.860     265.984     252.076
  C      -95.336     266.813     249.863
  O      -94.022     266.205     249.827
  C      -96.318     265.838     249.214
  O      -96.487     266.204     247.843
  C      -95.611     264.499     249.312
  O      -96.075     263.579     248.325
  C      -94.139     264.920     249.181
  N      -93.227     263.940     249.771
  C      -92.416     263.222     248.889
  O      -92.503     263.414     247.673
  N      -91.558     262.278     249.391
  C      -91.559     262.019     250.665
  N      -90.702     261.059     251.098
  C      -92.437     262.715     251.627
  C      -93.228     263.658     251.120
  O      -95.951     267.209     254.280
  O      -98.143     266.162     253.347
  H      -95.572     262.740     248.432
  H      -95.041     267.002     254.548
  H      -92.415     262.453     252.674
  H      -93.899     264.223     251.759
  H      -93.870     265.051     248.127
  H      -95.789     264.050     250.300
  H      -97.292     265.811     249.708
  H      -95.266     267.745     249.287
  H      -90.131     260.593     250.405
  H      -94.873     267.772     251.738
  H      -90.657     260.742     252.057
  H      -96.603     267.745     251.355
  P      -97.790     267.025     247.404
  C     -100.110     266.547     246.379
  O      -98.882     265.996     246.826
  O      -97.548     268.227     246.556
  O      -98.436     267.449     248.813
  H      -98.792     268.354     248.721
  H     -100.744     265.763     246.021
  H      -99.922     267.242     245.588
  H     -100.591     267.052     247.191

 6  7  8  9  10  11  12  13  14  15  16  26  30  31  32  33  35 0
 6-311+G(2d,p)
 ****
 37  38 0
 6-311+G(2d,p)
 ****
 1  2  3  4  5  17  18  19  20  21  22  23  24  25 0
 3-21G
 ****
 27  28  29  34  36  39  40  41  42  43  44  45  46 0
 3-21G
 ****


