%nproc=1
%NoSave
%Mem=1900MB
#P OB98/GEN NMR

erre ene a

0 1
  C     -157.255      -0.815     864.940
  O     -158.610      -0.522     864.653
  P     -159.227      -0.707     863.190
  C     -160.671      -2.824     863.699
  O     -160.657      -1.435     863.344
  C     -161.975      -3.250     864.380
  O     -162.081      -2.644     865.685
  C     -163.183      -2.742     863.573
  O     -163.660      -3.485     862.464
  C     -164.249      -2.421     864.628
  O     -165.201      -3.459     864.774
  C     -163.434      -2.242     865.906
  N     -166.292       1.666     867.451
  C     -166.649       0.334     867.272
  N     -167.963       0.075     867.344
  N     -165.792      -0.617     867.035
  C     -164.510      -0.175     866.902
  C     -164.024       1.106     867.070
  C     -164.988       2.142     867.380
  O     -164.715       3.352     867.455
  N     -162.695       1.195     866.793
  C     -162.361      -0.025     866.411
  N     -163.432      -0.888     866.439
  O     -158.305      -1.170     862.114
  O     -159.655       0.807     862.834
  H     -165.598      -3.650     863.905
  H     -159.535       0.937     861.875
  H     -167.006       2.356     867.560
  H     -161.374      -0.334     866.090
  H     -163.818      -2.891     866.697
  H     -164.812      -1.533     864.335
  H     -168.668       0.812     867.372
  H     -162.895      -1.770     863.153
  H     -168.272      -0.854     867.052
  H     -161.994      -4.332     864.564
  H     -159.812      -2.985     864.360
  H     -160.516      -3.423     862.805
  P     -164.672      -2.961     861.337
  C     -162.958      -2.064     859.642
  O     -163.949      -3.061     859.917
  O     -164.757      -1.370     861.589
  O     -166.043      -3.567     861.394
  H     -165.579      -1.013     861.212
  H     -162.763      -2.038     858.584
  H     -162.034      -2.320     860.187
  H     -163.302      -1.077     859.969
  H     -157.059      -0.620     865.974
  H     -156.621      -0.201     864.335
  H     -157.060      -1.846     864.728

 3  4  5  6  7  8  9  10  11  12  23  26  30  31 0
 6-311+G(2d,p)
 ****
 33  35  36  37  38 0
 6-311+G(2d,p)
 ****
 1  2  13  14  15  16  17  18  19  20  21  22  24  25 0
 3-21G
 ****
 27  28  29  32  34  39  40  41  42  43  44  45  46  47  48  49 0
 3-21G
 ****


