%nproc=1
%NoSave
%Mem=1900MB
#P OB98/GEN NMR

erre ene a

0 1
  C     -386.762    -187.053     139.443
  O     -388.104    -186.896     139.854
  H     -386.722    -187.486     138.439
  H     -386.283    -186.072     139.421
  H     -386.223    -187.694     140.147
  P     -388.991    -188.231     139.962
  C     -389.868    -188.160     137.515
  O     -389.059    -188.830     138.474
  C     -390.650    -189.183     136.700
  O     -389.796    -190.287     136.332
  C     -391.829    -189.805     137.436
  O     -392.975    -188.970     137.417
  C     -392.049    -191.059     136.607
  O     -392.731    -190.721     135.383
  C     -390.609    -191.493     136.312
  N     -390.943    -196.274     138.107
  C     -391.627    -195.625     137.141
  N     -391.479    -194.350     136.728
  C     -390.507    -193.731     137.417
  C     -389.729    -194.264     138.432
  C     -389.970    -195.610     138.772
  N     -389.285    -196.271     139.764
  N     -388.856    -193.315     138.932
  C     -389.085    -192.240     138.201
  N     -390.079    -192.439     137.279
  O     -390.475    -187.679     140.198
  O     -388.570    -189.206     141.010
  H     -392.222    -190.001     134.969
  H     -391.033    -188.374     140.594
  H     -392.398    -196.205     136.640
  H     -388.556    -191.299     138.303
  H     -390.502    -191.947     135.322
  H     -392.661    -191.809     137.116
  H     -391.560    -190.095     138.461
  H     -390.986    -188.699     135.772
  H     -389.224    -187.579     136.846
  H     -389.658    -197.163     140.053
  H     -388.668    -195.738     140.362
  H     -390.552    -187.482     138.032
  P     -394.161    -189.323     138.442
  C     -395.923    -189.749     136.572
  O     -395.154    -190.295     137.643
  O     -394.980    -187.950     138.536
  O     -393.712    -189.809     139.780
  H     -395.448    -187.883     139.392
  H     -396.532    -190.517     136.142
  H     -395.265    -189.355     135.825
  H     -396.549    -188.965     136.945

 6  7  8  9  10  11  12  13  14  15  25  28  32  33  34  35 0
 6-311+G(2d,p)
 ****
 36  39  40 0
 6-311+G(2d,p)
 ****
 1  2  3  4  5  16  17  18  19  20  21  22  23  24 0
 3-21G
 ****
 26  27  29  30  31  37  38  41  42  43  44  45  46  47 0
 3-21G
 ****
 48 0
 3-21G
 ****


