%nproc=1
%NoSave
%Mem=1900MB
#P OB98/GEN NMR

erre ene a

0 1
  C      842.963     162.953    -606.881
  O      843.202     162.053    -605.820
  H      842.580     163.891    -606.468
  H      842.217     162.539    -607.565
  H      843.888     163.158    -607.424
  P      843.919     160.663    -606.177
  C      846.223     161.769    -605.702
  O      845.423     161.021    -606.612
  C      847.659     161.254    -605.711
  O      847.674     159.895    -605.209
  C      848.307     161.254    -607.096
  O      849.683     161.627    -606.966
  C      848.221     159.796    -607.530
  O      849.221     159.447    -608.488
  C      848.339     159.066    -606.184
  N      847.751     157.730    -606.251
  C      848.527     156.738    -606.857
  O      849.638     157.011    -607.312
  N      848.005     155.474    -606.991
  C      846.778     155.247    -606.630
  N      846.307     153.983    -606.820
  C      845.901     156.278    -606.048
  C      846.447     157.486    -605.887
  O      843.238     160.236    -607.559
  O      843.812     159.602    -605.133
  H      849.111     158.490    -608.707
  H      843.180     159.264    -607.638
  H      844.880     156.048    -605.790
  H      845.877     158.314    -605.471
  H      849.390     158.979    -605.885
  H      847.242     159.606    -607.982
  H      847.811     161.924    -607.804
  H      848.249     161.859    -605.010
  H      846.935     153.305    -607.232
  H      845.811     161.657    -604.695
  H      845.359     153.710    -606.613
  H      846.190     162.833    -605.983
  P      850.311     162.474    -608.167
  C      850.882     164.466    -606.586
  O      850.231     164.036    -607.778
  O      849.231     162.328    -609.339
  O      851.656     162.003    -608.599
  H      849.575     161.744    -610.041
  H      850.742     165.520    -606.463
  H      851.928     164.251    -606.653
  H      850.465     163.950    -605.746

 6  7  8  9  10  11  12  13  14  15  16  26  30  31  32  33  35 0
 6-311+G(2d,p)
 ****
 37  38 0
 6-311+G(2d,p)
 ****
 1  2  3  4  5  17  18  19  20  21  22  23  24  25 0
 3-21G
 ****
 27  28  29  34  36  39  40  41  42  43  44  45  46 0
 3-21G
 ****


