%nproc=1
%NoSave
%Mem=1900MB
#P OB98/GEN NMR

erre ene a

0 1
  C       32.940     -63.857      62.290
  O       32.656     -64.830      63.276
  H       33.595     -64.302      61.538
  H       33.456     -63.010      62.750
  H       32.022     -63.517      61.803
  P       31.458     -64.502      64.293
  C       28.872     -64.506      64.066
  O       30.123     -64.396      63.406
  C       27.853     -63.565      63.431
  O       28.273     -62.192      63.585
  C       27.641     -63.783      61.937
  O       26.717     -64.834      61.688
  C       27.060     -62.438      61.535
  O       25.672     -62.372      61.930
  C       27.892     -61.466      62.382
  N       29.722     -58.812      58.468
  C       28.421     -59.165      58.767
  N       27.473     -58.759      57.895
  N       28.077     -59.857      59.823
  C       29.132     -60.214      60.593
  C       30.465     -59.931      60.397
  C       30.828     -59.152      59.237
  O       31.966     -58.803      58.932
  N       31.244     -60.462      61.391
  C       30.387     -61.085      62.174
  N       29.092     -60.968      61.732
  O       31.757     -62.984      64.713
  O       31.376     -65.390      65.488
  H       25.361     -61.470      61.729
  H       32.161     -62.978      65.601
  H       29.933     -58.287      57.637
  H       30.649     -61.627      63.072
  H       27.314     -60.590      62.696
  H       27.090     -62.271      60.457
  H       27.670     -58.243      57.052
  H       28.591     -63.945      61.411
  H       26.511     -59.005      58.097
  H       26.906     -63.678      63.976
  H       29.002     -64.245      65.122
  H       28.520     -65.541      63.992
  P       26.873     -65.677      60.332
  C       28.306     -67.729      59.654
  O       28.181     -66.594      60.500
  O       27.329     -64.564      59.278
  O       25.643     -66.385      59.879
  H       26.617     -64.411      58.626
  H       29.219     -68.241      59.877
  H       28.315     -67.413      58.632
  H       27.479     -68.388      59.817

 6  7  8  9  10  11  12  13  14  15  26  29  33  34 0
 6-311+G(2d,p)
 ****
 36  38  39  40  41 0
 6-311+G(2d,p)
 ****
 1  2  3  4  5  16  17  18  19  20  21  22  23  24  25 0
 3-21G
 ****
 27  28  30  31  32  35  37  42  43  44  45  46  47 0
 3-21G
 ****
 48  49 0
 3-21G
 ****


