%nproc=1
%NoSave
%Mem=1900MB
#P OB98/GEN NMR

erre ene a

0 1
  C      425.183     188.728    -196.887
  O      425.034     189.778    -197.825
  P      424.076     189.523    -199.090
  C      425.324     189.479    -201.412
  O      425.004     188.815    -200.200
  C      426.602     190.309    -201.234
  O      427.625     189.510    -200.610
  C      427.211     190.825    -202.539
  O      426.493     191.932    -203.045
  C      428.638     191.134    -202.087
  O      428.681     192.410    -201.420
  C      428.907     189.992    -201.087
  N      429.701     188.902    -201.653
  C      430.976     189.244    -202.102
  O      431.439     190.379    -202.042
  N      431.710     188.222    -202.650
  C      431.278     186.933    -202.842
  O      431.965     186.069    -203.382
  C      429.911     186.644    -202.375
  C      429.205     187.618    -201.814
  O      423.881     191.018    -199.619
  O      422.817     188.797    -198.738
  H      424.642     191.587    -199.381
  H      429.565     192.467    -200.991
  H      432.654     188.430    -202.961
  H      429.533     185.642    -202.524
  H      428.191     187.428    -201.477
  H      429.434     190.377    -200.208
  H      429.340     191.173    -202.931
  H      427.225     190.019    -203.284
  H      426.365     191.153    -200.565
  H      424.496     190.130    -201.689
  H      425.468     188.729    -202.199
  P      426.527     192.133    -204.651
  C      427.748     194.211    -205.680
  O      427.842     193.000    -204.967
  O      425.326     193.162    -204.866
  O      426.399     190.849    -205.423
  H      425.290     193.863    -204.192
  H      428.642     194.805    -205.489
  H      426.863     194.784    -205.366
  H      427.689     194.002    -206.751
  H      425.844     189.039    -196.106
  H      425.589     187.867    -197.376
  H      424.228     188.484    -196.470

 3  4  5  6  7  8  9  10  11  12  13  24  28  29  30  31  32 0
 6-311+G(2d,p)
 ****
 33  34 0
 6-311+G(2d,p)
 ****
 1  2  14  15  16  17  18  19  20  21  22  23  25  26  27 0
 3-21G
 ****
 35  36  37  38  39  40  41  42  43  44  45 0
 3-21G
 ****


