%nproc=1
%NoSave
%Mem=1900MB
#P OB98/GEN NMR

erre ene a

0 1
  C      -66.663      -8.990      30.920
  O      -65.385      -9.017      30.299
  P      -64.120      -8.562      31.180
  C      -63.516      -6.405      32.495
  O      -64.384      -7.024      31.552
  C      -63.162      -4.990      32.049
  O      -62.410      -5.030      30.819
  C      -64.360      -4.096      31.768
  O      -64.898      -3.531      32.952
  C      -63.721      -3.017      30.908
  O      -63.019      -2.079      31.745
  C      -62.725      -3.826      30.069
  N      -63.999      -2.064      25.441
  C      -63.579      -1.435      26.559
  N      -63.270      -1.974      27.756
  C      -63.471      -3.302      27.747
  C      -63.933      -4.074      26.693
  C      -64.194      -3.404      25.487
  N      -64.596      -4.051      24.340
  N      -64.013      -5.399      27.062
  C      -63.597      -5.430      28.310
  N      -63.249      -4.189      28.766
  O      -62.940      -8.484      30.102
  O      -63.785      -9.466      32.316
  H      -62.321      -2.580      32.208
  H      -62.075      -8.577      30.546
  H      -63.465      -0.357      26.477
  H      -63.524      -6.323      28.916
  H      -61.784      -3.289      29.908
  H      -64.452      -2.445      30.330
  H      -65.124      -4.625      31.183
  H      -62.521      -4.543      32.820
  H      -62.599      -6.994      32.576
  H      -64.583      -3.532      23.477
  H      -64.545      -5.064      24.323
  H      -64.008      -6.384      33.473
  P      -66.484      -3.280      32.980
  C      -68.067      -1.835      31.511
  O      -66.742      -2.091      31.938
  O      -66.719      -2.603      34.410
  O      -67.300      -4.515      32.794
  H      -67.632      -2.762      34.717
  H      -68.105      -0.834      31.072
  H      -68.768      -1.874      32.350
  H      -68.360      -2.565      30.752
  H      -67.406      -9.315      30.222
  H      -66.884      -7.992      31.237
  H      -66.661      -9.642      31.768

 3  4  5  6  7  8  9  10  11  12  22  25  29  30  31  32 0
 6-311+G(2d,p)
 ****
 33  36  37 0
 6-311+G(2d,p)
 ****
 1  2  13  14  15  16  17  18  19  20  21  23  24  26 0
 3-21G
 ****
 27  28  34  35  38  39  40  41  42  43  44  45  46  47  48 0
 3-21G
 ****


