%nproc=1
%NoSave
%Mem=1900MB
#P OB98/GEN NMR

erre ene a

0 1
  C     -406.387    -154.592       3.051
  O     -406.834    -153.556       2.190
  P     -406.075    -153.347       0.791
  C     -407.950    -151.797      -0.117
  O     -406.572    -151.936       0.195
  C     -408.231    -150.480      -0.837
  O     -408.093    -149.385       0.115
  C     -407.275    -150.175      -2.010
  O     -408.039    -149.448      -2.993
  C     -406.243    -149.252      -1.389
  O     -405.561    -148.478      -2.366
  C     -407.132    -148.445      -0.442
  N     -405.575    -143.976       1.519
  C     -406.359    -144.271       0.457
  N     -406.734    -145.488      -0.007
  C     -406.209    -146.462       0.760
  C     -405.368    -146.324       1.853
  C     -405.058    -144.999       2.243
  N     -404.273    -144.697       3.336
  N     -405.015    -147.557       2.356
  C     -405.636    -148.428       1.585
  N     -406.381    -147.819       0.622
  O     -406.785    -154.423      -0.159
  O     -404.597    -153.542       0.830
  H     -404.977    -147.842      -1.911
  H     -406.159    -155.139      -0.383
  H     -406.741    -143.416      -0.104
  H     -405.558    -149.510       1.684
  H     -407.700    -147.653      -0.968
  H     -405.510    -149.843      -0.837
  H     -406.829    -151.071      -2.460
  H     -409.275    -150.482      -1.182
  H     -408.523    -151.815       0.814
  H     -404.209    -143.739       3.624
  H     -404.039    -145.450       3.981
  H     -408.271    -152.648      -0.737
  P     -407.914    -149.946      -4.517
  C     -410.209    -148.894      -5.120
  O     -408.810    -148.958      -5.396
  O     -408.736    -151.332      -4.521
  O     -406.504    -150.134      -4.987
  H     -408.381    -151.914      -5.218
  H     -410.556    -147.874      -5.312
  H     -410.437    -149.157      -4.084
  H     -410.738    -149.586      -5.791
  H     -406.988    -154.604       3.936
  H     -405.365    -154.419       3.316
  H     -406.471    -155.534       2.550

 3  4  5  6  7  8  9  10  11  12  22  25  29  30  31  32 0
 6-311+G(2d,p)
 ****
 33  36  37 0
 6-311+G(2d,p)
 ****
 1  2  13  14  15  16  17  18  19  20  21  23  24  26 0
 3-21G
 ****
 27  28  34  35  38  39  40  41  42  43  44  45  46  47  48 0
 3-21G
 ****


