%nproc=1
%NoSave
%Mem=1900MB
#P OB98/GEN NMR

erre ene a

0 1
  C      100.872    -517.716    -541.779
  O      101.588    -518.918    -541.521
  P      100.768    -520.155    -540.895
  C      102.150    -521.872    -542.265
  O      100.865    -521.330    -541.983
  C      102.143    -522.605    -543.606
  O      101.898    -521.672    -544.679
  C      103.450    -523.295    -543.958
  O      103.573    -524.567    -543.328
  C      103.291    -523.465    -545.460
  O      102.438    -524.590    -545.741
  C      102.593    -522.160    -545.857
  N      105.570    -520.703    -549.750
  C      104.833    -521.816    -549.552
  N      104.074    -522.135    -548.483
  C      104.158    -521.179    -547.537
  C      104.902    -520.011    -547.587
  C      105.632    -519.775    -548.762
  N      106.364    -518.632    -548.977
  N      104.742    -519.285    -546.423
  C      103.907    -519.997    -545.693
  N      103.516    -521.145    -546.327
  O       99.243    -519.669    -541.019
  O      101.132    -520.513    -539.500
  H      101.539    -524.343    -545.454
  H       98.690    -520.142    -540.361
  H      104.834    -522.535    -550.360
  H      103.550    -519.713    -544.712
  H      101.841    -522.310    -546.642
  H      104.241    -523.653    -545.970
  H      104.312    -522.649    -543.750
  H      101.314    -523.325    -543.589
  H      102.424    -522.579    -541.478
  H      106.702    -518.455    -549.909
  H      106.240    -517.860    -548.327
  H      102.886    -521.058    -542.278
  P      104.833    -524.770    -542.355
  C      103.614    -526.439    -540.780
  O      104.211    -525.165    -540.931
  O      105.373    -523.277    -542.142
  O      105.878    -525.686    -542.899
  H      106.325    -523.293    -541.925
  H      103.531    -526.660    -539.710
  H      104.220    -527.217    -541.248
  H      102.614    -526.437    -541.216
  H      101.537    -516.986    -542.190
  H      100.457    -517.345    -540.865
  H      100.084    -517.913    -542.475

 3  4  5  6  7  8  9  10  11  12  22  25  29  30  31  32 0
 6-311+G(2d,p)
 ****
 33  36  37 0
 6-311+G(2d,p)
 ****
 1  2  13  14  15  16  17  18  19  20  21  23  24  26 0
 3-21G
 ****
 27  28  34  35  38  39  40  41  42  43  44  45  46  47  48 0
 3-21G
 ****


