%nproc=1
%NoSave
%Mem=1900MB
#P OB98/GEN NMR

erre ene a

0 1
  C     -101.408     577.656    -112.859
  O     -102.391     578.567    -113.320
  H     -101.575     577.423    -111.806
  H     -101.484     576.736    -113.444
  H     -100.410     578.081    -112.994
  P     -102.431     580.003    -112.606
  C     -103.811     580.814    -110.558
  O     -103.056     579.763    -111.146
  C     -104.236     580.426    -109.142
  O     -105.115     579.286    -109.184
  C     -103.087     580.039    -108.220
  O     -102.418     581.173    -107.691
  C     -103.851     579.280    -107.132
  O     -104.468     580.219    -106.231
  C     -104.923     578.548    -107.946
  N     -103.647     573.973    -106.010
  C     -104.022     575.135    -105.424
  N     -104.375     576.301    -106.008
  C     -104.312     576.199    -107.348
  C     -103.974     575.082    -108.090
  C     -103.618     573.925    -107.365
  N     -103.169     572.773    -107.981
  N     -104.018     575.367    -109.446
  C     -104.364     576.635    -109.511
  N     -104.563     577.173    -108.270
  O     -103.594     580.765    -113.399
  O     -101.146     580.767    -112.638
  H     -105.086     579.706    -105.676
  H     -103.196     581.326    -114.092
  H     -104.049     575.121    -104.338
  H     -104.474     577.193    -110.428
  H     -105.886     578.522    -107.434
  H     -103.206     578.628    -106.532
  H     -102.394     579.348    -108.718
  H     -104.805     581.272    -108.724
  H     -104.702     581.009    -111.167
  H     -102.531     572.231    -107.408
  H     -102.918     572.882    -108.957
  H     -103.196     581.718    -110.537
  P     -100.990     581.557    -108.312
  C      -98.630     581.736    -107.275
  O     -100.024     581.870    -107.063
  O     -101.258     583.002    -108.948
  O     -100.459     580.605    -109.320
  H     -101.019     582.990    -109.899
  H      -98.108     581.972    -106.371
  H      -98.321     582.405    -108.050
  H      -98.408     580.730    -107.563

 6  7  8  9  10  11  12  13  14  15  25  28  32  33  34  35 0
 6-311+G(2d,p)
 ****
 36  39  40 0
 6-311+G(2d,p)
 ****
 1  2  3  4  5  16  17  18  19  20  21  22  23  24 0
 3-21G
 ****
 26  27  29  30  31  37  38  41  42  43  44  45  46  47  48 0
 3-21G
 ****


