%nproc=1
%NoSave
%Mem=1900MB
#P OB98/GEN NMR

erre ene a

0 1
  C     -222.504    -274.473    -561.257
  O     -223.240    -275.506    -560.631
  H     -221.451    -274.569    -560.978
  H     -222.869    -273.497    -560.929
  H     -222.590    -274.554    -562.346
  P     -224.832    -275.473    -560.840
  C     -224.316    -276.883    -562.974
  O     -225.014    -275.785    -562.404
  C     -225.302    -277.982    -563.349
  O     -226.122    -277.572    -564.463
  C     -224.646    -279.288    -563.791
  O     -224.175    -280.067    -562.697
  C     -225.805    -279.954    -564.505
  O     -226.732    -280.480    -563.537
  C     -226.419    -278.750    -565.265
  N     -225.885    -278.600    -566.621
  C     -226.604    -279.217    -567.651
  O     -227.623    -279.867    -567.404
  N     -226.132    -279.122    -568.937
  C     -225.046    -278.453    -569.179
  N     -224.614    -278.405    -570.472
  C     -224.268    -277.774    -568.130
  C     -224.736    -277.886    -566.892
  O     -225.193    -273.915    -560.751
  O     -225.631    -276.340    -559.924
  H     -226.896    -279.773    -562.890
  H     -226.140    -273.776    -560.993
  H     -223.361    -277.239    -568.378
  H     -224.214    -277.412    -566.068
  H     -227.509    -278.843    -565.326
  H     -225.499    -280.788    -565.142
  H     -223.842    -279.109    -564.515
  H     -225.971    -278.145    -562.491
  H     -225.137    -278.932    -571.163
  H     -223.595    -277.255    -562.236
  H     -223.694    -278.066    -570.727
  H     -223.773    -276.561    -563.869
  P     -223.006    -281.129    -562.988
  C     -221.272    -279.694    -561.670
  O     -221.617    -280.322    -562.905
  O     -223.165    -281.427    -564.549
  O     -223.066    -282.378    -562.161
  H     -223.001    -282.371    -564.745
  H     -220.328    -279.201    -561.772
  H     -221.207    -280.434    -560.900
  H     -222.023    -278.976    -561.413

 6  7  8  9  10  11  12  13  14  15  16  26  30  31  32  33  35 0
 6-311+G(2d,p)
 ****
 37  38 0
 6-311+G(2d,p)
 ****
 1  2  3  4  5  17  18  19  20  21  22  23  24  25 0
 3-21G
 ****
 27  28  29  34  36  39  40  41  42  43  44  45  46 0
 3-21G
 ****


