%nproc=1
%NoSave
%Mem=1900MB
#P OB98/GEN NMR

erre ene a

0 1
  C     -581.965     338.661    -529.765
  O     -582.419     339.961    -529.433
  H     -582.670     337.933    -529.364
  H     -580.984     338.479    -529.322
  H     -581.914     338.535    -530.849
  P     -581.541     341.215    -529.913
  C     -580.620     342.601    -527.923
  O     -580.446     341.450    -528.757
  C     -581.804     342.387    -526.979
  O     -581.568     341.236    -526.133
  C     -582.066     343.567    -526.042
  O     -582.808     344.579    -526.715
  C     -582.857     342.875    -524.943
  O     -584.212     342.650    -525.387
  C     -582.102     341.524    -524.820
  N     -579.760     339.020    -521.078
  C     -580.928     338.708    -521.760
  N     -581.555     337.584    -521.380
  N     -581.405     339.430    -522.742
  C     -580.704     340.561    -522.968
  C     -579.547     340.996    -522.341
  C     -578.995     340.144    -521.299
  O     -577.961     340.387    -520.674
  N     -579.148     342.230    -522.789
  C     -580.036     342.511    -523.744
  N     -581.012     341.551    -523.857
  O     -582.301     342.448    -530.296
  O     -580.670     340.634    -531.127
  H     -584.174     342.014    -526.121
  H     -581.107     340.791    -531.983
  H     -579.442     338.425    -520.320
  H     -580.021     343.430    -524.343
  H     -582.775     340.697    -524.543
  H     -582.907     343.460    -524.030
  H     -581.392     337.142    -520.490
  H     -581.132     343.953    -525.612
  H     -582.435     337.353    -521.854
  H     -582.696     342.155    -527.583
  H     -580.808     343.461    -528.588
  H     -579.705     342.798    -527.348
  P     -582.548     346.145    -526.414
  C     -584.629     347.241    -525.304
  O     -583.446     346.446    -525.120
  O     -582.785     347.054    -527.576
  O     -581.051     346.189    -525.825
  H     -580.375     346.304    -526.531
  H     -585.127     347.361    -524.365
  H     -585.283     346.752    -525.995
  H     -584.357     348.201    -525.689

 6  7  8  9  10  11  12  13  14  15  26  29  33  34 0
 6-311+G(2d,p)
 ****
 36  38  39  40  41 0
 6-311+G(2d,p)
 ****
 1  2  3  4  5  16  17  18  19  20  21  22  23  24  25 0
 3-21G
 ****
 27  28  30  31  32  35  37  42  43  44  45  46  47 0
 3-21G
 ****
 48  49 0
 3-21G
 ****


