%nproc=1
%NoSave
%Mem=1900MB
#P OB98/GEN NMR

erre ene a

0 1
  C     -309.365    -578.117       3.237
  O     -309.909    -576.800       3.354
  P     -308.897    -575.577       3.094
  C     -310.442    -574.212       1.520
  O     -309.771    -574.263       2.775
  C     -311.859    -574.782       1.614
  O     -312.493    -574.378       2.864
  C     -312.784    -574.342       0.485
  O     -313.688    -575.419       0.201
  C     -313.564    -573.200       1.102
  O     -314.768    -572.944       0.377
  C     -313.734    -573.738       2.519
  N     -317.379    -570.558       4.166
  C     -317.372    -571.501       3.206
  N     -316.354    -572.291       2.809
  C     -315.255    -572.060       3.561
  C     -315.114    -571.117       4.570
  C     -316.245    -570.348       4.868
  N     -316.245    -569.359       5.831
  N     -313.827    -571.142       5.077
  C     -313.207    -572.077       4.371
  N     -314.046    -572.679       3.474
  O     -308.237    -575.948       1.680
  O     -307.860    -575.410       4.151
  H     -315.391    -573.679       0.548
  H     -307.309    -576.226       1.811
  H     -318.308    -571.642       2.668
  H     -312.180    -572.349       4.479
  H     -314.543    -574.473       2.595
  H     -312.955    -572.282       1.101
  H     -312.263    -574.044      -0.442
  H     -311.788    -575.885       1.628
  H     -309.878    -574.776       0.767
  H     -317.086    -568.825       5.969
  H     -315.389    -569.151       6.328
  H     -310.456    -573.174       1.168
  P     -313.678    -575.986      -1.301
  C     -314.239    -578.531      -1.375
  O     -314.737    -577.188      -1.334
  O     -312.255    -576.730      -1.421
  O     -313.860    -574.944      -2.344
  H     -311.975    -576.752      -2.353
  H     -314.863    -579.141      -0.714
  H     -313.204    -578.589      -1.041
  H     -314.325    -578.899      -2.391
  H     -310.131    -578.838       3.432
  H     -308.572    -578.240       3.945
  H     -308.985    -578.259       2.247

 3  4  5  6  7  8  9  10  11  12  22  25  29  30  31  32 0
 6-311+G(2d,p)
 ****
 33  36  37 0
 6-311+G(2d,p)
 ****
 1  2  13  14  15  16  17  18  19  20  21  23  24  26 0
 3-21G
 ****
 27  28  34  35  38  39  40  41  42  43  44  45  46  47  48 0
 3-21G
 ****


