%nproc=1
%NoSave
%Mem=1900MB
#P OB98/GEN NMR

erre ene a

0 1
  C      -90.564     -63.643       6.035
  O      -90.764     -63.508       4.639
  P      -92.183     -63.931       4.024
  C      -93.374     -62.080       5.459
  O      -93.297     -63.438       5.068
  C      -94.806     -61.727       5.874
  O      -94.838     -60.345       6.324
  C      -95.845     -61.869       4.754
  O      -97.063     -62.318       5.361
  C      -95.993     -60.445       4.249
  O      -97.220     -60.230       3.570
  C      -95.850     -59.663       5.559
  N      -95.486     -58.260       5.361
  C      -96.384     -57.443       4.681
  O      -97.453     -57.837       4.219
  N      -95.995     -56.139       4.518
  C      -94.800     -55.601       4.898
  O      -94.497     -54.429       4.710
  C      -93.872     -56.522       5.568
  C      -94.255     -57.783       5.774
  O      -92.143     -65.517       4.215
  O      -92.392     -63.469       2.623
  H      -91.691     -65.790       5.031
  H      -97.940     -60.573       4.130
  H      -96.647     -55.519       4.060
  H      -92.907     -56.137       5.872
  H      -93.588     -58.481       6.264
  H      -96.782     -59.721       6.134
  H      -95.176     -60.218       3.556
  H      -95.533     -62.576       3.980
  H      -95.079     -62.354       6.732
  H      -93.080     -61.444       4.621
  H      -92.674     -61.900       6.281
  P      -98.051     -63.241       4.488
  C      -96.429     -65.210       5.070
  O      -97.254     -64.578       4.118
  O      -98.046     -62.429       3.104
  O      -99.422     -63.408       5.055
  H      -97.153     -62.196       2.805
  H      -96.257     -66.242       4.757
  H      -96.894     -65.220       6.059
  H      -95.467     -64.693       5.123
  H      -89.575     -63.322       6.286
  H      -90.688     -64.668       6.316
  H      -91.278     -63.041       6.557

 3  4  5  6  7  8  9  10  11  12  13  24  28  29  30  31  32 0
 6-311+G(2d,p)
 ****
 33  34 0
 6-311+G(2d,p)
 ****
 1  2  14  15  16  17  18  19  20  21  22  23  25  26  27 0
 3-21G
 ****
 35  36  37  38  39  40  41  42  43  44  45 0
 3-21G
 ****


