%nproc=1
%NoSave
%Mem=1900MB
#P OB98/GEN NMR

erre ene a

0 1
  C      767.926     827.321      77.704
  O      768.853     828.408      77.561
  P      768.487     829.752      76.776
  C      770.244     830.447      75.019
  O      769.839     830.511      76.390
  C      771.609     831.107      74.794
  O      771.706     832.359      75.502
  C      772.805     830.285      75.275
  O      773.114     829.272      74.337
  C      773.872     831.358      75.418
  O      774.461     831.683      74.142
  C      773.045     832.559      75.933
  N      776.038     833.819      79.924
  C      776.255     833.804      78.581
  N      775.412     833.448      77.584
  C      774.222     833.098      78.081
  C      773.834     833.047      79.417
  C      774.806     833.428      80.368
  N      774.575     833.426      81.727
  N      772.523     832.612      79.551
  C      772.116     832.431      78.307
  N      773.102     832.690      77.386
  O      767.471     830.615      77.465
  O      767.926     829.250      75.344
  H      773.727     831.756      73.490
  H      767.304     829.897      75.000
  H      777.252     834.116      78.271
  H      771.133     832.088      78.033
  H      773.396     833.510      75.517
  H      774.696     831.069      76.086
  H      772.598     829.848      76.245
  H      771.709     831.335      73.721
  H      769.480     830.947      74.416
  H      775.336     833.668      82.340
  H      773.679     833.081      82.071
  H      770.297     829.388      74.716
  P      772.979     827.730      74.741
  C      774.952     827.286      73.132
  O      773.647     826.868      73.566
  O      771.622     827.288      75.156
  O      774.034     827.560      75.939
  H      773.717     826.860      76.556
  H      774.838     828.141      72.453
  H      775.412     826.455      72.588
  H      775.568     827.558      73.981
  H      768.385     826.532      78.263
  H      767.650     826.958      76.736
  H      767.053     827.662      78.220

 3  4  5  6  7  8  9  10  11  12  22  25  29  30  31  32 0
 6-311+G(2d,p)
 ****
 33  36  37 0
 6-311+G(2d,p)
 ****
 1  2  13  14  15  16  17  18  19  20  21  23  24  26 0
 3-21G
 ****
 27  28  34  35  38  39  40  41  42  43  44  45  46  47  48 0
 3-21G
 ****


