%nproc=1
%NoSave
%Mem=1900MB
#P OB98/GEN NMR

erre ene a

0 1
  C      898.836      -7.613    -410.384
  O      900.115      -7.559    -409.772
  H      898.595      -8.656    -410.595
  H      898.850      -7.053    -411.322
  H      898.080      -7.199    -409.708
  P      900.650      -6.105    -409.367
  C      900.218      -6.595    -406.840
  O      899.963      -5.753    -407.961
  C      901.057      -5.848    -405.792
  O      900.323      -4.659    -405.369
  C      901.331      -6.670    -404.528
  O      902.584      -6.216    -403.972
  C      900.193      -6.239    -403.620
  O      900.433      -6.628    -402.285
  C      900.164      -4.750    -403.939
  N      897.210      -3.494    -399.962
  C      898.410      -4.097    -400.024
  N      899.142      -4.389    -401.123
  C      898.521      -3.960    -402.236
  C      897.300      -3.318    -402.327
  C      896.622      -3.089    -401.110
  N      895.389      -2.474    -401.037
  N      896.982      -3.043    -403.639
  C      898.009      -3.511    -404.336
  N      898.953      -4.080    -403.526
  O      899.910      -5.134    -410.402
  O      902.132      -5.934    -409.400
  H      901.273      -6.245    -401.957
  H      900.491      -4.959    -411.166
  H      898.844      -4.395    -399.074
  H      898.103      -3.468    -405.414
  H      901.005      -4.219    -403.481
  H      899.254      -6.722    -403.919
  H      901.389      -7.747    -404.706
  H      901.982      -5.500    -406.260
  H      900.765      -7.483    -407.187
  H      899.266      -6.906    -406.398
  H      894.967      -2.360    -400.130
  H      894.941      -2.184    -401.896
  P      903.751      -7.285    -403.694
  C      904.883      -7.373    -406.056
  O      904.101      -8.032    -405.071
  O      902.972      -8.425    -402.882
  O      904.920      -6.784    -402.909
  H      903.596      -8.888    -402.290
  H      905.013      -8.019    -406.899
  H      905.840      -7.126    -405.645
  H      904.386      -6.478    -406.366

 6  7  8  9  10  11  12  13  14  15  25  28  32  33  34  35 0
 6-311+G(2d,p)
 ****
 36  37  40 0
 6-311+G(2d,p)
 ****
 1  2  3  4  5  16  17  18  19  20  21  22  23  24 0
 3-21G
 ****
 26  27  29  30  31  38  39 41  42  43  44  45  46  47  48 0
 3-21G
 ****


