%nproc=1
%NoSave
%Mem=1900MB
#P OB98/GEN NMR

erre ene a

0 1
  C      127.230     322.837    -363.485
  O      126.583     321.580    -363.706
  P      124.992     321.477    -363.560
  C      123.278     320.924    -361.699
  O      124.604     321.334    -362.009
  C      123.261     320.172    -360.367
  O      123.863     318.855    -360.483
  C      124.065     320.878    -359.279
  O      123.554     322.094    -358.781
  C      124.299     319.757    -358.278
  O      123.188     319.591    -357.405
  C      124.450     318.525    -359.205
  N      125.838     318.097    -359.361
  C      126.261     317.073    -358.517
  O      125.540     316.572    -357.655
  N      127.562     316.665    -358.673
  C      128.463     317.192    -359.550
  O      129.624     316.801    -359.634
  C      127.972     318.292    -360.395
  C      126.706     318.686    -360.266
  O      124.320     320.505    -364.473
  O      124.510     322.979    -363.893
  H      122.456     319.214    -357.928
  H      123.706     322.914    -364.445
  H      127.879     315.913    -358.079
  H      128.663     318.737    -361.098
  H      126.311     319.493    -360.885
  H      123.879     317.678    -358.810
  H      125.170     319.949    -357.649
  H      125.053     321.124    -359.709
  H      122.219     320.032    -360.059
  H      122.896     320.284    -362.498
  H      122.629     321.805    -361.672
  P      123.847     323.511    -359.464
  C      125.886     325.097    -359.739
  O      125.368     323.921    -359.148
  O      122.809     324.574    -359.314
  O      123.938     323.112    -361.018
  H      123.606     323.854    -361.548
  H      126.930     325.211    -359.426
  H      125.322     325.972    -359.401
  H      125.852     325.025    -360.831
  H      128.285     322.724    -363.624
  H      127.035     323.168    -362.486
  H      126.854     323.559    -364.180

 3  4  5  6  7  8  9  10  11  12  13  23  28  29  30  31  32 0
 6-311+G(2d,p)
 ****
 33  34 0
 6-311+G(2d,p)
 ****
 1  2  14  15  16  17  18  19  20  21  22  24  25  26  27 0
 3-21G
 ****
 35  36  37  38  39  40  41  42  43  44  45 0
 3-21G
 ****


