%nproc=1
%NoSave
%Mem=1900MB
#P OB98/GEN NMR

erre ene a

0 1
  C      366.315    -409.132     128.173
  O      367.704    -409.326     128.044
  P      368.736    -409.191     129.250
  C      368.890    -411.516     130.439
  O      368.307    -410.218     130.406
  C      369.017    -412.024     131.881
  O      369.909    -411.140     132.604
  C      367.662    -411.993     132.614
  O      367.417    -413.136     133.425
  C      367.685    -410.636     133.303
  O      366.778    -410.539     134.390
  C      369.162    -410.487     133.653
  N      369.618    -406.433     136.683
  C      369.303    -407.735     137.016
  N      368.870    -407.934     138.282
  N      369.361    -408.733     136.170
  C      369.697    -408.356     134.914
  C      370.035    -407.100     134.467
  C      370.000    -406.016     135.420
  O      370.166    -404.832     135.146
  N      370.255    -407.084     133.116
  C      370.011    -408.321     132.731
  N      369.636    -409.124     133.789
  O      369.122    -407.803     129.650
  O      370.049    -409.907     128.632
  H      365.874    -410.643     134.031
  H      370.825    -409.438     128.999
  H      369.479    -405.693     137.362
  H      370.060    -408.680     131.714
  H      369.404    -410.984     134.596
  H      367.380    -409.886     132.566
  H      368.678    -407.171     138.908
  H      366.839    -412.012     131.893
  H      368.397    -408.817     138.473
  H      369.467    -413.022     131.874
  H      369.882    -411.416     129.982
  H      368.308    -412.212     129.829
  P      366.114    -414.053     133.487
  C      366.948    -416.178     132.308
  O      366.121    -415.033     132.217
  O      364.896    -413.070     133.170
  O      365.897    -414.739     134.797
  H      364.133    -413.296     133.739
  H      367.072    -416.594     131.307
  H      366.475    -416.919     132.950
  H      367.933    -415.909     132.714
  H      365.845    -409.279     127.223
  H      366.124    -408.136     128.515
  H      365.921    -409.833     128.879

 3  4  5  6  7  8  9  10  11  12  23  26  30  31 0
 6-311+G(2d,p)
 ****
 33  35  36  37  38 0
 6-311+G(2d,p)
 ****
 1  2  13  14  15  16  17  18  19  20  21  22  24  25 0
 3-21G
 ****
 27  28  29  32  34  39  40  41  42  43  44  45  46  47  48  49 0
 3-21G
 ****


