%nproc=1
%NoSave
%Mem=1900MB
#P OB98/GEN NMR

erre ene a

0 1
  C     -401.397    -515.373    -308.212
  O     -402.390    -515.023    -309.158
  H     -401.249    -516.454    -308.249
  H     -401.722    -515.099    -307.209
  H     -400.453    -514.873    -308.448
  P     -402.756    -513.464    -309.289
  C     -404.982    -513.466    -307.933
  O     -403.607    -513.121    -307.964
  C     -405.482    -513.594    -306.485
  O     -405.519    -512.272    -305.888
  C     -406.876    -514.197    -306.371
  O     -406.905    -515.143    -305.293
  C     -407.784    -513.025    -306.074
  O     -408.965    -513.396    -305.369
  C     -406.827    -512.070    -305.321
  N     -407.248    -510.682    -305.420
  C     -408.300    -510.275    -304.588
  O     -408.834    -511.074    -303.829
  N     -408.753    -508.978    -304.676
  C     -408.243    -508.176    -305.562
  N     -408.748    -506.922    -305.620
  C     -407.169    -508.581    -306.500
  C     -406.721    -509.829    -306.362
  O     -403.860    -513.453    -310.451
  O     -401.597    -512.554    -309.546
  H     -409.443    -512.557    -305.122
  H     -404.020    -512.543    -310.790
  H     -406.792    -507.882    -307.236
  H     -405.927    -510.204    -307.011
  H     -406.781    -512.355    -304.256
  H     -408.092    -512.550    -307.019
  H     -407.204    -514.708    -307.281
  H     -404.740    -514.171    -305.918
  H     -409.488    -506.687    -304.974
  H     -405.113    -514.431    -308.450
  H     -408.461    -506.219    -306.291
  H     -405.561    -512.708    -308.456
  P     -406.205    -516.565    -305.566
  C     -408.296    -517.311    -306.902
  O     -406.889    -517.185    -306.883
  O     -406.733    -517.484    -304.380
  O     -404.715    -516.485    -305.608
  H     -406.075    -517.554    -303.679
  H     -408.604    -517.735    -307.835
  H     -408.742    -516.346    -306.785
  H     -408.608    -517.948    -306.101

 6  7  8  9  10  11  12  13  14  15  16  26  30  31  32  33  35 0
 6-311+G(2d,p)
 ****
 37  38 0
 6-311+G(2d,p)
 ****
 1  2  3  4  5  17  18  19  20  21  22  23  24  25 0
 3-21G
 ****
 27  28  29  34  36  39  40  41  42  43  44  45  46 0
 3-21G
 ****


