%nproc=1
%NoSave
%Mem=1900MB
#P OB98/GEN NMR

erre ene a

0 1
  C     -526.305      -9.716      52.097
  O     -525.435     -10.843      52.112
  H     -525.774      -8.859      52.519
  H     -527.202      -9.904      52.698
  H     -526.590      -9.479      51.069
  P     -526.068     -12.283      51.784
  C     -523.862     -13.200      52.779
  O     -525.284     -13.315      52.736
  C     -523.288     -13.943      53.993
  O     -523.674     -13.277      55.213
  C     -523.799     -15.368      54.142
  O     -523.339     -16.253      53.142
  C     -523.522     -15.672      55.608
  O     -522.200     -16.148      55.839
  C     -523.696     -14.274      56.256
  N     -524.914     -14.191      57.055
  C     -524.981     -15.059      58.143
  O     -524.100     -15.874      58.424
  N     -526.134     -14.998      58.892
  C     -527.214     -14.202      58.620
  O     -528.236     -14.220      59.310
  C     -527.095     -13.325      57.448
  C     -525.968     -13.359      56.727
  O     -526.075     -12.673      50.336
  O     -527.526     -12.218      52.439
  H     -522.097     -16.226      56.814
  H     -528.108     -12.933      52.083
  H     -526.189     -15.606      59.688
  H     -527.937     -12.687      57.201
  H     -525.851     -12.722      55.848
  H     -522.851     -14.050      56.911
  H     -524.209     -16.420      55.992
  H     -524.894     -15.351      54.035
  H     -522.193     -13.927      53.925
  H     -523.621     -12.139      52.864
  H     -523.430     -13.590      51.853
  P     -524.303     -17.047      52.152
  C     -522.378     -18.583      51.312
  O     -523.685     -18.509      51.880
  O     -524.842     -16.275      50.975
  O     -525.553     -17.382      53.114
  H     -526.372     -17.342      52.570
  H     -522.100     -19.609      51.189
  H     -521.679     -18.100      51.962
  H     -522.375     -18.096      50.359

 6  7  8  9  10  11  12  13  14  15  16  26  31  32  33  34  35 0
 6-311+G(2d,p)
 ****
 36  37 0
 6-311+G(2d,p)
 ****
 1  2  3  4  5  17  18  19  20  21  22  23  24  25 0
 3-21G
 ****
 27  28  29  30  38  39  40  41  42  43  44  45 0
 3-21G
 ****


