%nproc=1
%NoSave
%Mem=1900MB
#P OB98/GEN NMR

erre ene a

0 1
  C       10.498    -837.089     977.786
  O        9.103    -836.909     977.671
  H       10.694    -837.903     978.489
  H       10.952    -836.173     978.174
  H       10.945    -837.342     976.814
  P        8.569    -836.061     976.416
  C        7.524    -837.979     975.009
  O        8.588    -837.051     975.151
  C        7.442    -838.483     973.570
  O        8.624    -839.299     973.300
  C        6.205    -839.355     973.275
  O        5.752    -839.085     971.943
  C        6.760    -840.761     973.314
  O        5.965    -841.682     972.581
  C        8.150    -840.542     972.733
  N        9.030    -845.355     971.626
  C        8.176    -844.443     971.031
  N        7.387    -844.892     970.044
  N        8.099    -843.189     971.400
  C        8.952    -842.865     972.404
  C        9.845    -843.674     973.070
  C        9.905    -845.070     972.670
  O       10.623    -845.926     973.159
  N       10.488    -842.979     974.061
  C        9.979    -841.760     974.011
  N        9.041    -841.645     973.011
  O        9.793    -835.061     976.134
  O        7.290    -835.331     976.637
  H        5.112    -841.796     973.042
  H        9.626    -834.206     976.588
  H        9.036    -846.315     971.317
  H       10.233    -840.948     974.669
  H        8.135    -840.414     971.635
  H        6.832    -841.113     974.350
  H        7.407    -845.831     969.679
  H        5.374    -839.197     973.987
  H        6.784    -844.224     969.569
  H        7.485    -837.628     972.888
  H        6.580    -837.478     975.263
  H        7.674    -838.810     975.705
  P        4.480    -838.113     971.749
  C        5.701    -835.914     971.048
  O        4.948    -836.603     972.040
  O        3.568    -838.473     973.012
  O        3.763    -838.329     970.460
  H        2.628    -838.395     972.765
  H        5.931    -834.928     971.395
  H        5.129    -835.850     970.146
  H        6.610    -836.446     970.857

 6  7  8  9  10  11  12  13  14  15  26  29  33  34 0
 6-311+G(2d,p)
 ****
 36  38  39  40  41 0
 6-311+G(2d,p)
 ****
 1  2  3  4  5  16  17  18  19  20  21  22  23  24  25 0
 3-21G
 ****
 27  28  30  31  32  35  37  42  43  44  45  46  47 0
 3-21G
 ****
 48  49 0
 3-21G
 ****


