%nproc=1
%NoSave
%Mem=1900MB
#P OB98/GEN NMR

erre ene a

0 1
  C      149.603      64.205      35.127
  O      148.844      64.334      36.312
  H      150.654      64.075      35.396
  H      149.504      65.113      34.527
  H      149.278      63.336      34.548
  P      147.251      64.204      36.168
  C      147.477      61.650      36.569
  O      146.954      62.683      35.748
  C      146.553      60.437      36.545
  O      147.111      59.362      37.331
  C      145.158      60.698      37.105
  O      144.303      61.278      36.130
  C      144.720      59.282      37.441
  O      144.329      58.594      36.233
  C      146.015      58.672      37.994
  N      145.085      56.546      42.504
  C      144.700      56.145      41.240
  N      143.954      55.022      41.167
  N      145.012      56.787      40.144
  C      145.741      57.906      40.370
  C      146.177      58.410      41.575
  C      145.839      57.681      42.775
  O      146.165      57.989      43.918
  N      146.891      59.567      41.408
  C      146.868      59.775      40.107
  N      146.180      58.797      39.432
  O      146.948      65.034      34.831
  O      146.463      64.726      37.321
  H      143.869      57.780      36.505
  H      146.589      65.908      35.077
  H      144.809      56.021      43.315
  H      147.337      60.609      39.605
  H      146.107      57.606      37.756
  H      143.861      59.255      38.113
  H      143.660      54.492      41.972
  H      145.195      61.299      38.022
  H      143.664      54.708      40.250
  H      146.492      60.083      35.508
  H      147.565      62.021      37.596
  H      148.469      61.371      36.201
  P      142.928      61.940      36.623
  C      143.788      64.380      36.808
  O      143.318      63.231      37.498
  O      142.406      60.893      37.714
  O      141.913      62.168      35.557
  H      141.603      60.442      37.385
  H      144.007      65.155      37.513
  H      143.036      64.720      36.127
  H      144.675      64.131      36.264

 6  7  8  9  10  11  12  13  14  15  26  29  33  34 0
 6-311+G(2d,p)
 ****
 36  38  39  40  41 0
 6-311+G(2d,p)
 ****
 1  2  3  4  5  16  17  18  19  20  21  22  23  24  25 0
 3-21G
 ****
 27  28  30  31  32  35  37  42  43  44  45  46  47 0
 3-21G
 ****
 48  49 0
 3-21G
 ****


