%nproc=1
%NoSave
%Mem=1900MB
#P OB98/GEN NMR

erre ene a

0 1
  C     -257.803     240.523    -311.688
  O     -258.937     240.491    -312.558
  P     -260.339     240.966    -311.931
  C     -260.206     243.338    -313.000
  O     -260.291     242.566    -311.807
  C     -261.338     244.359    -313.062
  O     -262.615     243.734    -312.850
  C     -261.254     245.453    -312.007
  O     -260.324     246.463    -312.369
  C     -262.675     245.997    -312.026
  O     -262.824     246.937    -313.105
  C     -263.506     244.732    -312.296
  N     -267.842     244.177    -309.724
  C     -267.602     244.807    -310.929
  N     -268.674     245.345    -311.549
  N     -266.417     244.904    -311.476
  C     -265.444     244.295    -310.759
  C     -265.554     243.639    -309.553
  C     -266.865     243.568    -308.943
  O     -267.126     243.048    -307.865
  N     -264.345     243.143    -309.141
  C     -263.508     243.472    -310.103
  N     -264.125     244.186    -311.105
  O     -260.235     240.477    -310.410
  O     -261.536     240.401    -312.621
  H     -263.754     247.240    -313.092
  H     -261.129     240.321    -310.047
  H     -268.768     244.137    -309.346
  H     -262.459     243.217    -310.131
  H     -264.293     244.912    -313.037
  H     -262.939     246.523    -311.107
  H     -269.623     245.246    -311.221
  H     -261.029     245.027    -311.020
  H     -268.524     245.781    -312.452
  H     -261.335     244.811    -314.065
  H     -260.263     242.679    -313.869
  H     -259.229     243.830    -313.035
  P     -259.273     246.931    -311.249
  C     -257.431     247.134    -313.063
  O     -257.828     246.562    -311.836
  O     -259.500     245.866    -310.075
  O     -259.457     248.335    -310.779
  H     -259.282     246.267    -309.213
  H     -257.694     248.196    -313.110
  H     -257.908     246.601    -313.891
  H     -256.347     247.041    -313.162
  H     -256.937     240.186    -312.218
  H     -257.979     239.882    -310.849
  H     -257.645     241.524    -311.345

 3  4  5  6  7  8  9  10  11  12  23  26  30  31  33  0
 6-311+G(2d,p)
 ****
 35  36  37  38 0
 6-311+G(2d,p)
 ****
 1  2  13  14  15  16  17  18  19  20  21  22  24  25  27  28  29 0
 3-21G
 ****
 32  34  39  40  41  42  43  44  45  46  47  48  49 0
 3-21G
 ****


