%nproc=1
%NoSave
%Mem=1900MB
#P OB98/GEN NMR

erre ene a

0 1
  C      -68.769     347.205     -20.385
  O      -67.745     347.021     -19.401
  P      -68.105     346.185     -18.078
  C      -66.655     347.391     -16.215
  O      -66.892     346.264     -17.037
  C      -65.406     347.128     -15.352
  O      -65.502     345.843     -14.698
  C      -64.103     347.107     -16.152
  O      -63.564     348.410     -16.318
  C      -63.229     346.185     -15.327
  O      -62.705     346.881     -14.181
  C      -64.258     345.112     -14.891
  N      -64.511     343.977     -15.809
  C      -63.444     343.339     -16.429
  O      -62.266     343.655     -16.288
  N      -63.767     342.285     -17.250
  C      -65.003     341.697     -17.370
  O      -65.219     340.718     -18.071
  C      -66.062     342.320     -16.565
  C      -65.781     343.408     -15.853
  O      -68.078     344.662     -18.567
  O      -69.418     346.554     -17.447
  H      -63.471     347.086     -13.604
  H      -68.975     344.266     -18.493
  H      -63.020     341.852     -17.766
  H      -67.046     341.865     -16.595
  H      -66.570     343.870     -15.257
  H      -63.981     344.680     -13.917
  H      -62.360     345.836     -15.900
  H      -64.271     346.631     -17.128
  H      -65.343     347.903     -14.575
  H      -67.510     347.590     -15.572
  H      -66.501     348.274     -16.835
  P      -63.074     348.903     -17.760
  C      -61.070     350.465     -17.353
  O      -62.468     350.382     -17.539
  O      -64.057     348.762     -18.879
  O      -61.745     348.018     -18.024
  H      -61.949     347.226     -18.562
  H      -60.787     351.521     -17.356
  H      -60.549     349.931     -18.146
  H      -60.796     350.040     -16.381
  H      -68.380     347.777     -21.201
  H      -69.596     347.724     -19.947
  H      -69.096     346.251     -20.742

 3  4  5  6  7  8  9  10  11  12  13  23  28  29  30  31  32 0
 6-311+G(2d,p)
 ****
 33  34 0
 6-311+G(2d,p)
 ****
 1  2  14  15  16  17  18  19  20  21  22  24  25  26  27 0
 3-21G
 ****
 35  36  37  38  39  40  41  42  43  44  45 0
 3-21G
 ****


