%nproc=1
%NoSave
%Mem=1900MB
#P OB98/GEN NMR

erre ene a

0 1
  C      800.872    -783.583     843.571
  O      799.459    -783.394     843.711
  P      798.635    -784.587     844.401
  C      798.708    -783.601     846.807
  O      799.086    -784.664     845.935
  C      797.279    -783.784     847.295
  O      797.150    -785.002     848.065
  C      796.771    -782.683     848.207
  O      796.370    -781.540     847.466
  C      795.575    -783.356     848.858
  O      794.425    -783.264     847.994
  C      796.045    -784.808     848.988
  N      794.681    -786.556     853.554
  C      793.912    -786.339     852.421
  N      792.599    -786.659     852.510
  N      794.395    -785.858     851.305
  C      795.718    -785.603     851.348
  C      796.578    -785.776     852.411
  C      796.035    -786.282     853.656
  O      796.660    -786.458     854.700
  N      797.862    -785.421     852.076
  C      797.783    -785.070     850.810
  N      796.502    -785.149     850.328
  O      799.304    -785.902     843.758
  O      797.166    -784.539     844.154
  H      793.661    -783.599     848.502
  H      798.659    -786.630     843.751
  H      794.257    -786.925     854.386
  H      798.624    -784.751     850.199
  H      795.268    -785.521     848.704
  H      795.286    -782.873     849.806
  H      792.176    -787.104     853.311
  H      797.517    -782.419     848.965
  H      792.037    -786.552     851.678
  H      796.629    -783.880     846.410
  H      798.786    -782.652     846.277
  H      799.409    -783.560     847.647
  P      797.465    -780.397     847.212
  C      797.815    -780.701     844.654
  O      798.323    -780.904     845.957
  O      798.462    -780.567     848.445
  O      796.908    -779.017     847.104
  H      798.883    -779.707     848.665
  H      797.379    -779.708     844.552
  H      797.043    -781.461     844.441
  H      798.614    -780.817     843.927
  H      801.302    -782.724     843.100
  H      801.058    -784.449     842.971
  H      801.311    -783.718     844.537

 3  4  5  6  7  8  9  10  11  12  23  26  30  31  33  0
 6-311+G(2d,p)
 ****
 35  36  37  38 0
 6-311+G(2d,p)
 ****
 1  2  13  14  15  16  17  18  19  20  21  22  24  25  27  28  29 0
 3-21G
 ****
 32  34  39  40  41  42  43  44  45  46  47  48  49 0
 3-21G
 ****


