%nproc=1
%NoSave
%Mem=1900MB
#P OB98/GEN NMR

erre ene a

0 1
  C     -898.100     304.647    -926.212
  O     -897.730     304.536    -924.853
  H     -897.450     304.004    -926.806
  H     -897.960     305.693    -926.537
  H     -899.140     304.342    -926.367
  P     -898.730     305.115    -923.731
  C     -897.720     307.452    -924.125
  O     -898.900     306.683    -924.022
  C     -898.060     308.937    -924.352
  O     -898.430     309.547    -923.071
  C     -896.870     309.728    -924.894
  O     -897.270     310.844    -925.701
  C     -896.190     310.226    -923.638
  O     -895.370     311.389    -923.858
  C     -897.400     310.511    -922.740
  N     -896.860     312.990    -918.322
  C     -896.990     313.514    -919.593
  N     -896.960     314.845    -919.714
  N     -897.100     312.764    -920.667
  C     -897.040     311.437    -920.412
  C     -896.870     310.804    -919.185
  C     -896.810     311.641    -918.005
  O     -896.680     311.247    -916.853
  N     -896.830     309.426    -919.319
  C     -896.970     309.238    -920.619
  N     -897.110     310.413    -921.314
  O     -897.820     305.112    -922.391
  O     -900.000     304.343    -923.526
  H     -895.930     312.101    -924.161
  H     -898.390     305.104    -921.604
  H     -896.810     313.623    -917.535
  H     -896.960     308.253    -921.105
  H     -897.810     311.511    -922.918
  H     -895.540     309.440    -923.268
  H     -896.680     315.467    -918.925
  H     -896.200     309.109    -925.476
  H     -896.740     315.229    -920.651
  H     -898.960     309.016    -925.008
  H     -897.140     307.062    -924.947
  H     -897.110     307.358    -923.222
  P     -897.470     310.620    -927.277
  C     -895.250     311.787    -928.093
  O     -896.050     310.652    -928.026
  O     -898.190     311.985    -927.763
  O     -898.300     309.411    -927.623
  H     -899.090     311.799    -928.073
  H     -894.359     311.563    -928.641
  H     -894.991     312.100    -927.103
  H     -895.785     312.571    -928.587

 6  7  8  9  10  11  12  13  14  15  26  29  33  34 0
 6-311+G(2d,p)
 ****
 36  38  39  40  41 0
 6-311+G(2d,p)
 ****
 1  2  3  4  5  16  17  18  19  20  21  22  23  24  25 0
 3-21G
 ****
 27  28  30  31  32  35  37  42  43  44  45  46  47 0
 3-21G
 ****
 48  49 0
 3-21G
 ****


