%nproc=1
%NoSave
%Mem=1900MB
#P OB98/GEN NMR

erre ene a

0 1
  C     -283.598    -474.126    -190.758
  O     -283.214    -474.237    -189.394
  P     -284.087    -473.554    -188.233
  C     -282.686    -471.407    -188.015
  O     -283.047    -472.645    -187.414
  C     -281.355    -470.918    -187.442
  O     -281.522    -470.710    -186.019
  C     -280.174    -471.879    -187.581
  O     -279.499    -471.817    -188.828
  C     -279.255    -471.352    -186.483
  O     -278.565    -470.177    -186.950
  C     -280.246    -470.988    -185.382
  N     -278.249    -473.217    -181.226
  C     -277.859    -472.141    -181.950
  N     -278.438    -471.627    -183.053
  C     -279.556    -472.303    -183.370
  C     -280.079    -473.412    -182.724
  C     -279.377    -473.873    -181.598
  N     -279.788    -474.945    -180.843
  N     -281.232    -473.845    -183.356
  C     -281.395    -473.003    -184.360
  N     -280.418    -472.051    -184.407
  O     -284.899    -474.506    -187.423
  O     -284.978    -472.471    -188.996
  H     -279.232    -469.585    -187.344
  H     -285.726    -472.195    -188.428
  H     -276.968    -471.640    -181.603
  H     -282.206    -473.050    -185.071
  H     -279.953    -470.080    -184.839
  H     -278.485    -472.070    -186.191
  H     -280.466    -472.914    -187.342
  H     -281.119    -469.949    -187.904
  H     -283.468    -470.676    -187.793
  H     -279.300    -475.126    -179.983
  H     -280.707    -475.331    -181.026
  H     -282.627    -471.527    -189.097
  P     -279.413    -473.174    -189.686
  C     -276.912    -473.400    -188.932
  O     -277.852    -473.401    -189.990
  O     -280.313    -473.217    -190.866
  O     -279.738    -474.302    -188.593
  H     -279.067    -474.415    -187.899
  H     -275.945    -473.717    -189.330
  H     -277.214    -474.086    -188.139
  H     -276.808    -472.391    -188.527
  H     -282.891    -474.646    -191.371
  H     -283.622    -473.094    -191.039
  H     -284.569    -474.555    -190.891

 3  4  5  6  7  8  9  10  11  12  22  25  29  30  31  32 0
 6-311+G(2d,p)
 ****
 33  36  37 0
 6-311+G(2d,p)
 ****
 1  2  13  14  15  16  17  18  19  20  21  23  24  26 0
 3-21G
 ****
 27  28  34  35  38  39  40  41  42  43  44  45  46  47  48 0
 3-21G
 ****


