%nproc=1
%NoSave
%Mem=1900MB
#P OB98/GEN NMR

erre ene a

0 1
  C      387.198      95.696     517.346
  O      387.937      96.889     517.542
  H      387.375      95.034     518.199
  H      387.519      95.186     516.433
  H      386.128      95.918     517.294
  P      387.910      98.001     516.390
  C      388.496      99.925     518.024
  O      388.888      99.175     516.877
  C      389.310     101.215     518.126
  O      390.676     100.921     518.481
  C      389.385     102.011     516.828
  O      388.159     102.685     516.582
  C      390.576     102.911     517.116
  O      390.204     104.007     517.963
  C      391.516     101.928     517.866
  N      392.521     101.318     517.004
  C      393.791     101.908     517.021
  O      394.000     102.900     517.714
  N      394.778     101.360     516.223
  C      394.531     100.304     515.517
  N      395.546      99.817     514.759
  C      393.217      99.628     515.506
  C      392.264     100.183     516.252
  O      386.556      98.466     515.950
  O      388.721      97.326     515.184
  H      391.039     104.460     518.207
  H      388.112      96.884     514.569
  H      393.064      98.735     514.905
  H      391.273      99.746     516.305
  H      392.037     102.447     518.681
  H      391.001     103.337     516.205
  H      389.636     101.355     515.988
  H      388.881     101.820     518.937
  H      396.437     100.300     514.818
  H      388.684      99.294     518.902
  H      395.528      98.913     514.301
  H      387.427     100.155     517.987
  P      387.397     102.561     515.182
  C      384.984     102.946     515.991
  O      386.103     103.505     515.307
  O      387.123     101.172     514.721
  O      388.324     103.399     514.172
  H      389.125     102.866     513.917
  H      384.187     103.659     516.013
  H      385.267     102.696     516.992
  H      384.659     102.063     515.481

 6  7  8  9  10  11  12  13  14  15  16  26  30  31  32  33  35 0
 6-311+G(2d,p)
 ****
 37  38 0
 6-311+G(2d,p)
 ****
 1  2  3  4  5  17  18  19  20  21  22  23  24  25 0
 3-21G
 ****
 27  28  29  34  36  39  40  41  42  43  44  45  46 0
 3-21G
 ****


