%nproc=1
%NoSave
%Mem=1900MB
#P OB98/GEN NMR

erre ene a

0 1
  C     -891.370    -163.813     144.550
  O     -891.720    -165.139     145.021
  P     -891.120    -166.471     144.386
  C     -893.210    -167.225     143.082
  O     -891.850    -166.808     143.010
  C     -893.840    -167.435     141.714
  O     -893.060    -168.434     140.947
  C     -895.300    -167.932     141.736
  O     -895.970    -167.272     140.652
  C     -895.150    -169.425     141.478
  O     -896.340    -170.049     141.011
  C     -894.000    -169.384     140.421
  N     -893.390    -170.657     140.164
  C     -894.230    -171.718     139.724
  O     -895.440    -171.598     139.637
  N     -893.670    -172.931     139.418
  C     -892.370    -173.088     139.529
  N     -891.860    -174.302     139.173
  C     -891.440    -172.014     139.980
  C     -892.020    -170.850     140.262
  O     -891.100    -167.633     145.326
  O     -889.610    -166.096     143.930
  H     -889.040    -166.869     144.079
  H     -896.170    -170.998     140.918
  H     -890.390    -172.191     140.050
  H     -891.430    -170.013     140.599
  H     -894.420    -168.958     139.487
  H     -894.840    -169.912     142.382
  H     -895.820    -167.713     142.664
  H     -893.750    -166.513     141.142
  H     -892.500    -175.021     138.856
  H     -893.790    -166.451     143.619
  H     -890.860    -174.540     139.218
  H     -893.260    -168.144     143.678
  P     -897.120    -166.193     140.963
  C     -899.060    -167.922     140.715
  O     -898.400    -166.977     141.546
  O     -897.610    -165.783     139.505
  O     -896.680    -164.966     141.705
  H     -898.010    -164.876     139.524
  H     -899.250    -168.816     141.291
  H     -898.450    -168.203     139.833
  H     -900.000    -167.511     140.383
  H     -891.895    -163.080     145.126
  H     -891.641    -163.718     143.519
  H     -890.316    -163.663     144.657

 3  4  5  6  7  8  9  10  11  12  13  24  27  28  29  30  32 0
 6-311+G(2d,p)
 ****
 34  35 0
 6-311+G(2d,p)
 ****
 1  2  14  15  16  17  18  19  20  21  22  23  25  26 0
 3-21G
 ****
 31  33  36  37  38  39  40  41  42  43  44  45  46 0
 3-21G
 ****


