%nproc=1
%NoSave
%Mem=1900MB
#P OB98/GEN NMR

erre ene a

0 1
  C      197.190     338.511    -543.986
  O      196.825     337.152    -544.100
  H      198.278     338.578    -543.904
  H      196.746     338.940    -543.080
  H      196.864     339.071    -544.867
  P      195.278     336.842    -544.409
  C      194.165     334.834    -545.688
  O      195.230     335.305    -544.882
  C      194.476     333.429    -546.218
  O      195.563     333.529    -547.180
  C      194.899     332.439    -545.131
  O      194.396     331.145    -545.472
  C      196.417     332.426    -545.243
  O      196.987     331.231    -544.717
  C      196.606     332.631    -546.758
  N      197.932     333.157    -547.086
  C      199.010     332.276    -546.955
  O      198.821     331.119    -546.568
  N      200.280     332.730    -547.221
  C      200.459     333.976    -547.528
  N      201.744     334.371    -547.761
  C      199.360     334.952    -547.640
  C      198.135     334.482    -547.414
  O      195.041     337.663    -545.760
  O      194.343     337.196    -543.296
  H      196.610     330.463    -545.208
  H      195.758     337.554    -546.408
  H      199.566     335.988    -547.891
  H      197.265     335.129    -547.482
  H      196.473     331.684    -547.292
  H      196.842     333.274    -544.687
  H      194.550     332.723    -544.138
  H      193.598     333.062    -546.766
  H      202.470     333.671    -547.657
  H      193.995     335.510    -546.530
  H      202.011     335.320    -547.951
  H      193.258     334.812    -545.074
  P      193.202     330.516    -544.610
  C      191.072     329.104    -545.021
  O      192.302     329.576    -545.552
  O      192.440     331.471    -543.757
  O      193.969     329.436    -543.691
  H      193.578     329.479    -542.794
  H      190.580     328.494    -545.750
  H      190.448     329.937    -544.772
  H      191.262     328.525    -544.141

 6  7  8  9  10  11  12  13  14  15  16  26  30  31  32  33  35 0
 6-311+G(2d,p)
 ****
 37  38 0
 6-311+G(2d,p)
 ****
 1  2  3  4  5  17  18  19  20  21  22  23  24  25 0
 3-21G
 ****
 27  28  29  34  36  39  40  41  42  43  44  45  46 0
 3-21G
 ****


