%nproc=1
%NoSave
%Mem=1900MB
#P OB98/GEN NMR

erre ene a

0 1
  C     1388.145    -245.527     473.320
  O     1387.532    -244.457     472.635
  H     1387.481    -245.928     474.082
  H     1388.386    -246.321     472.603
  H     1389.075    -245.182     473.785
  P     1387.059    -243.202     473.516
  C     1384.969    -244.580     474.188
  O     1385.472    -243.338     473.729
  C     1383.452    -244.625     474.029
  O     1382.867    -243.633     474.910
  C     1382.959    -244.329     472.600
  O     1382.171    -245.434     472.129
  C     1382.031    -243.126     472.740
  O     1380.867    -243.208     471.940
  C     1381.726    -243.102     474.246
  N     1378.578    -239.152     473.581
  C     1378.431    -240.459     473.297
  N     1379.257    -241.488     473.586
  C     1380.337    -241.041     474.285
  C     1380.581    -239.738     474.678
  C     1379.670    -238.758     474.292
  N     1379.841    -237.417     474.550
  N     1381.791    -239.680     475.373
  C     1382.247    -240.910     475.361
  N     1381.415    -241.759     474.694
  O     1387.205    -241.968     472.506
  O     1387.848    -242.983     474.775
  H     1380.482    -242.303     471.932
  H     1387.681    -241.246     472.943
  H     1377.538    -240.721     472.735
  H     1383.194    -241.238     475.764
  H     1380.852    -243.756     474.482
  H     1382.607    -242.214     472.457
  H     1383.771    -244.127     471.894
  H     1383.086    -245.595     474.364
  H     1385.214    -244.700     475.255
  H     1379.183    -236.780     474.116
  H     1380.705    -237.112     474.958
  H     1385.447    -245.396     473.618
  P     1382.920    -246.485     471.165
  C     1381.957    -245.188     469.123
  O     1382.186    -246.453     469.740
  O     1382.465    -247.913     471.760
  O     1384.393    -246.333     471.138
  H     1383.129    -248.587     471.584
  H     1381.462    -245.333     468.185
  H     1382.893    -244.696     468.960
  H     1381.344    -244.586     469.761

 6  7  8  9  10  11  12  13  14  15  25  28  32  33  34  35 0
 6-311+G(2d,p)
 ****
 36  39  40 0
 6-311+G(2d,p)
 ****
 1  2  3  4  5  16  17  18  19  20  21  22  23  24 0
 3-21G
 ****
 26  27  29  30  31  37  38  41  42  43  44  45  46  47  48 0
 3-21G
 ****


