%nproc=1
%NoSave
%Mem=1900MB
#P OB98/GEN NMR

erre ene a

0 1
  C     -553.193     519.240      88.682
  O     -553.240     520.032      87.495
  P     -553.251     521.632      87.637
  C     -552.848     523.464      85.852
  O     -553.555     522.273      86.194
  C     -553.532     524.195      84.692
  O     -553.277     523.473      83.452
  C     -555.066     524.297      84.804
  O     -555.626     525.411      85.498
  C     -555.462     524.440      83.347
  O     -555.348     525.822      82.944
  C     -554.427     523.600      82.598
  N     -556.043     520.651      78.729
  C     -555.602     521.927      78.765
  N     -555.192     522.638      79.843
  C     -555.251     521.895      80.966
  C     -555.677     520.577      81.075
  C     -556.086     519.945      79.884
  N     -556.544     518.645      79.848
  N     -555.601     520.152      82.380
  C     -555.157     521.201      83.052
  N     -554.922     522.275      82.238
  O     -552.103     522.224      88.378
  O     -554.623     521.897      88.417
  H     -555.847     525.917      82.119
  H     -554.500     522.635      89.044
  H     -555.586     522.453      77.810
  H     -555.003     521.229      84.128
  H     -554.097     524.076      81.660
  H     -556.510     524.156      83.162
  H     -555.488     523.364      85.210
  H     -553.110     525.207      84.597
  H     -551.815     523.208      85.575
  H     -556.868     518.282      78.960
  H     -556.641     518.124      80.705
  H     -552.777     524.065      86.768
  P     -555.918     525.361      87.081
  C     -556.844     527.101      88.786
  O     -556.407     526.837      87.462
  O     -554.803     524.829      87.912
  O     -557.275     524.495      87.152
  H     -558.045     524.940      86.781
  H     -556.937     528.193      88.906
  H     -556.133     526.727      89.524
  H     -557.845     526.660      88.953
  H     -553.192     518.203      88.419
  H     -554.049     519.453      89.287
  H     -552.303     519.470      89.229

 3  4  5  6  7  8  9  10  11  12  22  25  29  30  31  32 0
 6-311+G(2d,p)
 ****
 33  36  37 0
 6-311+G(2d,p)
 ****
 1  2  13  14  15  16  17  18  19  20  21  23  24  26 0
 3-21G
 ****
 27  28  34  35  38  39  40  41  42  43  44  45  46  47  48 0
 3-21G
 ****


