%nproc=1
%NoSave
%Mem=1900MB
#P OB98/GEN NMR

erre ene a

0 1
  C       98.103     150.203    -151.222
  O       98.298     150.395    -152.609
  P       97.044     150.677    -153.560
  C       94.887     149.468    -154.268
  O       96.087     149.390    -153.503
  C       94.654     148.160    -155.020
  O       95.731     147.914    -155.950
  C       94.601     146.928    -154.122
  O       93.358     146.847    -153.452
  C       94.853     145.816    -155.133
  O       93.639     145.480    -155.829
  C       95.854     146.481    -156.092
  N       99.501     143.152    -157.375
  C       98.187     143.208    -157.678
  N       97.269     144.110    -157.263
  C       97.831     145.005    -156.434
  C       99.149     145.056    -156.008
  C      100.017     144.085    -156.537
  N      101.370     144.054    -156.284
  N       99.332     146.110    -155.133
  C       98.145     146.677    -155.029
  N       97.225     146.084    -155.846
  O       97.378     151.154    -154.935
  O       96.206     151.785    -152.765
  H       92.967     145.272    -155.155
  H       96.139     152.593    -153.308
  H       97.824     142.433    -158.346
  H       97.910     147.520    -154.392
  H       95.631     146.246    -157.141
  H       95.226     144.900    -154.669
  H       95.429     146.953    -153.403
  H       93.722     148.257    -155.597
  H       94.986     150.292    -154.978
  H      101.921     143.405    -156.827
  H      101.813     144.895    -155.921
  H       94.046     149.677    -153.599
  P       93.318     146.493    -151.889
  C       94.177     144.557    -150.444
  O       93.803     144.972    -151.744
  O       92.048     146.832    -151.180
  O       94.555     147.316    -151.287
  H       94.350     147.587    -150.372
  H       95.180     144.930    -150.216
  H       94.190     143.463    -150.415
  H       93.471     144.925    -149.696
  H       99.047     150.028    -150.750
  H       97.464     149.359    -151.065
  H       97.650     151.076    -150.801

 3  4  5  6  7  8  9  10  11  12  22  25  29  30  31  32 0
 6-311+G(2d,p)
 ****
 33  36  37 0
 6-311+G(2d,p)
 ****
 1  2  13  14  15  16  17  18  19  20  21  23  24  26 0
 3-21G
 ****
 27  28  34  35  38  39  40  41  42  43  44  45  46  47  48 0
 3-21G
 ****


