%nproc=1
%NoSave
%Mem=1900MB
#P OB98/GEN NMR

erre ene a

0 1
  C      149.721     -24.159      16.675
  O      149.872     -22.793      17.011
  H      149.798     -24.755      17.587
  H      150.510     -24.464      15.982
  H      148.741     -24.330      16.222
  P      149.772     -21.745      15.801
  C      147.313     -21.789      14.937
  O      148.264     -21.201      15.811
  C      147.014     -20.850      13.762
  O      146.276     -21.593      12.747
  C      146.150     -19.636      14.140
  O      146.486     -18.561      13.247
  C      144.753     -20.141      13.824
  O      143.826     -19.080      13.790
  C      145.040     -20.878      12.519
  N      141.391     -21.829       9.067
  C      142.324     -20.857       9.145
  N      143.270     -20.675      10.087
  C      143.210     -21.647      11.014
  C      142.323     -22.708      11.063
  C      141.372     -22.782      10.030
  N      140.417     -23.768       9.954
  N      142.569     -23.499      12.172
  C      143.588     -22.923      12.777
  N      144.002     -21.799      12.119
  O      149.834     -22.677      14.502
  O      150.822     -20.686      15.782
  H      143.998     -18.494      13.024
  H      150.750     -22.723      14.170
  H      142.305     -20.123       8.342
  H      144.055     -23.270      13.691
  H      145.208     -20.184      11.688
  H      144.406     -20.836      14.597
  H      146.290     -19.310      15.174
  H      147.960     -20.543      13.302
  H      146.394     -21.981      15.502
  H      147.705     -22.736      14.555
  H      139.761     -23.739       9.189
  H      140.379     -24.473      10.674
  P      147.339     -17.317      13.806
  C      149.822     -18.125      13.653
  O      148.783     -17.328      13.107
  O      147.690     -17.797      15.297
  O      146.631     -16.003      13.828
  H      147.802     -17.018      15.873
  H      150.707     -18.010      13.063
  H      149.522     -19.152      13.650
  H      150.020     -17.814      14.657

 6  7  8  9  10  11  12  13  14  15  25  28  32  33  34  35 0
 6-311+G(2d,p)
 ****
 36  37  40 0
 6-311+G(2d,p)
 ****
 1  2  3  4  5  16  17  18  19  20  21  22  23  24 0
 3-21G
 ****
 26  27  29  30  31  38  39 41  42  43  44  45  46  47  48 0
 3-21G
 ****


