%nproc=1
%NoSave
%Mem=1900MB
#P OB98/GEN NMR

erre ene a

0 1
  C     -518.161     645.062     362.456
  O     -517.789     644.238     363.548
  H     -517.393     644.988     361.683
  H     -518.231     646.103     362.782
  H     -519.116     644.735     362.038
  P     -518.874     644.068     364.720
  C     -519.480     641.570     364.186
  O     -518.888     642.503     365.070
  C     -520.030     640.367     364.950
  O     -520.923     639.624     364.083
  C     -518.945     639.401     365.442
  O     -519.347     638.872     366.705
  C     -518.966     638.295     364.397
  O     -518.433     637.073     364.904
  C     -520.460     638.257     364.029
  N     -520.693     637.655     362.720
  C     -520.359     636.305     362.585
  O     -519.880     635.682     363.534
  N     -520.538     635.696     361.367
  C     -520.949     636.393     360.352
  N     -521.082     635.739     359.167
  C     -521.271     637.830     360.442
  C     -521.134     638.391     361.639
  O     -520.248     644.299     363.934
  O     -518.672     644.980     365.886
  H     -517.459     637.169     364.990
  H     -520.286     643.831     363.079
  H     -521.602     638.376     359.563
  H     -521.355     639.438     361.800
  H     -521.020     637.687     364.781
  H     -518.365     638.586     363.531
  H     -517.967     639.881     365.535
  H     -520.633     640.737     365.788
  H     -520.827     634.756     359.145
  H     -518.748     641.226     363.442
  H     -521.338     636.193     358.303
  H     -520.291     642.080     363.648
  P     -518.291     638.806     367.908
  C     -517.926     641.218     368.771
  O     -518.606     639.982     368.951
  O     -516.864     638.673     367.509
  O     -518.762     637.498     368.718
  H     -517.955     637.010     368.987
  H     -518.230     641.906     369.532
  H     -518.167     641.621     367.809
  H     -516.870     641.057     368.836

 6  7  8  9  10  11  12  13  14  15  16  26  30  31  32  33  35 0
 6-311+G(2d,p)
 ****
 37  38 0
 6-311+G(2d,p)
 ****
 1  2  3  4  5  17  18  19  20  21  22  23  24  25 0
 3-21G
 ****
 27  28  29  34  36  39  40  41  42  43  44  45  46 0
 3-21G
 ****


