%nproc=1
%NoSave
%Mem=1900MB
#P OB98/GEN NMR

erre ene a

0 1
  C       60.039     -73.829     179.270
  O       59.079     -73.228     180.112
  H       59.537     -74.563     178.634
  H       60.789     -74.346     179.874
  H       60.524     -73.088     178.630
  P       59.484     -71.918     180.939
  C       58.129     -70.038     182.069
  O       58.143     -71.394     181.648
  C       56.700     -69.576     182.370
  O       56.043     -69.230     181.116
  C       55.834     -70.639     183.065
  O       54.896     -69.947     183.900
  C       55.123     -71.275     181.887
  O       53.989     -72.002     182.298
  C       54.858     -70.044     181.014
  N       54.548     -70.396     179.630
  C       53.329     -71.019     179.406
  O       52.540     -71.305     180.308
  N       53.052     -71.351     178.108
  C       53.890     -71.179     177.046
  O       53.604     -71.527     175.907
  C       55.188     -70.555     177.349
  C       55.454     -70.194     178.607
  O       60.234     -70.877     180.177
  O       60.334     -72.479     182.175
  H       53.268     -71.390     182.557
  H       60.998     -71.819     182.453
  H       52.166     -71.796     177.926
  H       55.880     -70.413     176.530
  H       56.400     -69.732     178.863
  H       54.015     -69.462     181.411
  H       55.787     -71.973     181.367
  H       56.416     -71.351     183.652
  H       56.748     -68.656     182.966
  H       58.553     -69.430     181.262
  H       58.751     -69.926     182.962
  P       55.300     -69.369     185.340
  C       54.606     -67.317     186.735
  O       54.187     -68.310     185.802
  O       56.702     -68.858     185.425
  O       55.084     -70.596     186.346
  H       55.687     -70.506     187.109
  H       53.782     -66.674     186.965
  H       55.401     -66.741     186.310
  H       54.949     -67.791     187.631

 6  7  8  9  10  11  12  13  14  15  16  26  31  32  33  34  35 0
 6-311+G(2d,p)
 ****
 36  37 0
 6-311+G(2d,p)
 ****
 1  2  3  4  5  17  18  19  20  21  22  23  24  25 0
 3-21G
 ****
 27  28  29  30  38  39  40  41  42  43  44  45 0
 3-21G
 ****


