%nproc=1
%NoSave
%Mem=1900MB
#P OB98/GEN NMR

erre ene a

0 1
  C     -351.044    -298.922    1122.851
  O     -351.289    -297.948    1121.856
  H     -349.987    -299.184    1122.843
  H     -351.637    -299.822    1122.663
  H     -351.297    -298.516    1123.843
  P     -352.818    -297.511    1121.636
  C     -352.491    -294.965    1122.087
  O     -352.968    -296.208    1122.569
  C     -353.585    -293.901    1122.209
  O     -354.033    -293.802    1123.583
  C     -353.148    -292.479    1121.817
  O     -353.081    -292.283    1120.428
  C     -354.257    -291.683    1122.457
  O     -355.458    -291.812    1121.674
  C     -354.399    -292.406    1123.816
  N     -353.559    -291.827    1124.872
  C     -353.958    -290.582    1125.378
  O     -354.961    -290.017    1124.928
  N     -353.187    -289.988    1126.337
  C     -352.128    -290.577    1126.790
  N     -351.407    -289.933    1127.757
  C     -351.678    -291.893    1126.298
  C     -352.436    -292.457    1125.357
  O     -353.639    -298.620    1122.445
  O     -353.258    -297.328    1120.221
  H     -355.214    -291.642    1120.757
  H     -354.596    -298.365    1122.507
  H     -350.783    -292.359    1126.694
  H     -352.173    -293.424    1124.957
  H     -355.453    -292.403    1124.170
  H     -354.037    -290.617    1122.535
  H     -352.195    -292.213    1122.299
  H     -354.443    -294.223    1121.609
  H     -351.697    -289.009    1128.026
  H     -352.209    -295.084    1121.032
  H     -350.494    -290.258    1128.048
  H     -351.619    -294.643    1122.649
  P     -351.617    -292.239    1119.753
  C     -351.815    -294.003    1117.832
  O     -351.341    -293.702    1119.145
  O     -350.641    -292.176    1121.021
  O     -351.388    -291.106    1118.803
  H     -349.844    -291.641    1120.830
  H     -351.551    -295.009    1117.579
  H     -351.370    -293.330    1117.129
  H     -352.879    -293.895    1117.804

 6  7  8  9  10  11  12  13  14  15  16  26  30  31  32  33  35 0
 6-311+G(2d,p)
 ****
 37  38 0
 6-311+G(2d,p)
 ****
 1  2  3  4  5  17  18  19  20  21  22  23  24  25 0
 3-21G
 ****
 27  28  29  34  36  39  40  41  42  43  44  45  46 0
 3-21G
 ****


