%nproc=1
%NoSave
%Mem=1900MB
#P OB98/GEN NMR

erre ene a

0 1
  C      -72.898    -168.318      56.233
  O      -73.393    -167.748      55.039
  H      -73.633    -168.209      57.034
  H      -72.714    -169.383      56.066
  H      -71.959    -167.839      56.521
  P      -73.744    -166.182      55.092
  C      -72.914    -165.202      52.845
  O      -74.016    -165.719      53.576
  C      -72.163    -166.340      52.158
  O      -73.123    -167.124      51.402
  C      -71.062    -165.871      51.190
  O      -69.832    -166.555      51.459
  C      -71.565    -166.298      49.823
  O      -70.517    -166.687      48.942
  C      -72.498    -167.454      50.156
  N      -73.253    -167.466      45.113
  C      -72.126    -167.594      45.847
  N      -72.003    -167.681      47.187
  C      -73.210    -167.656      47.777
  C      -74.446    -167.554      47.161
  C      -74.439    -167.435      45.761
  N      -75.585    -167.248      45.016
  N      -75.464    -167.553      48.097
  C      -74.850    -167.611      49.261
  N      -73.487    -167.659      49.118
  O      -72.336    -165.504      55.448
  O      -74.796    -165.815      56.082
  H      -70.019    -167.400      49.381
  H      -72.421    -165.034      56.299
  H      -71.197    -167.625      45.283
  H      -75.334    -167.573      50.229
  H      -71.946    -168.394      50.294
  H      -72.110    -165.462      49.368
  H      -70.893    -164.790      51.235
  H      -71.742    -166.999      52.927
  H      -72.230    -164.685      53.527
  H      -75.478    -167.055      44.033
  H      -76.458    -167.112      45.504
  H      -73.281    -164.484      52.104
  P      -68.809    -165.813      52.454
  C      -67.340    -167.815      53.215
  O      -67.423    -166.626      52.440
  O      -69.425    -166.116      53.900
  O      -68.691    -164.346      52.209
  H      -69.593    -165.278      54.373
  H      -66.365    -168.243      53.108
  H      -68.076    -168.514      52.876
  H      -67.516    -167.583      54.245

 6  7  8  9  10  11  12  13  14  15  25  28  32  33  34  35 0
 6-311+G(2d,p)
 ****
 36  39  40 0
 6-311+G(2d,p)
 ****
 1  2  3  4  5  16  17  18  19  20  21  22  23  24 0
 3-21G
 ****
 26  27  29  30  31  37  38  41  42  43  44  45  46  47  48 0
 3-21G
 ****


