%nproc=1
%NoSave
%Mem=1900MB
#P OB98/GEN NMR

erre ene a

0 1
  C        6.293     -41.627     135.624
  O        6.309     -42.537     136.703
  P        5.136     -43.609     136.916
  C        6.395     -45.811     137.339
  O        5.726     -44.707     137.929
  C        6.438     -47.009     138.289
  O        7.386     -46.748     139.361
  C        5.092     -47.359     138.936
  O        5.075     -48.783     139.086
  C        5.194     -46.682     140.288
  O        4.274     -47.208     141.237
  C        6.678     -46.904     140.610
  N        7.158     -45.983     141.635
  C        6.991     -46.381     142.964
  O        6.391     -47.423     143.229
  N        7.456     -45.563     143.963
  C        7.950     -44.403     143.661
  N        8.400     -43.637     144.692
  C        8.029     -43.892     142.279
  C        7.635     -44.731     141.324
  O        4.546     -44.163     135.664
  O        4.077     -42.833     137.830
  H        4.518     -46.869     142.126
  H        3.552     -42.194     137.285
  H        8.396     -42.897     142.082
  H        7.656     -44.447     140.282
  H        6.849     -47.931     140.959
  H        4.984     -45.611     140.182
  H        4.227     -47.020     138.360
  H        6.817     -47.871     137.725
  H        8.341     -44.032     145.623
  H        7.422     -45.504     137.115
  H        8.875     -42.758     144.560
  H        5.914     -46.079     136.393
  P        3.764     -49.641     138.752
  C        4.835     -51.634     137.555
  O        4.203     -51.180     138.739
  O        3.006     -49.193     137.545
  O        2.868     -49.529     140.077
  H        1.954     -49.804     139.875
  H        5.332     -52.585     137.760
  H        5.580     -50.912     137.209
  H        4.086     -51.785     136.774
  H        7.163     -41.005     135.669
  H        5.416     -41.018     135.684
  H        6.289     -42.168     134.701

 3  4  5  6  7  8  9  10  11  12  13  23  27  28  29  30  32 0
 6-311+G(2d,p)
 ****
 34  35 0
 6-311+G(2d,p)
 ****
 1  2  14  15  16  17  18  19  20  21  22  24  25  26 0
 3-21G
 ****
 31  33  36  37  38  39  40  41  42  43  44  45  46 0
 3-21G
 ****


