%nproc=1
%NoSave
%Mem=1900MB
#P OB98/GEN NMR

erre ene a

0 1
  C     -387.782    -457.363      64.922
  O     -388.598    -456.190      65.017
  P     -389.306    -455.716      66.378
  C     -389.173    -453.143      66.257
  O     -390.006    -454.290      66.146
  C     -388.775    -452.595      64.881
  O     -389.963    -452.407      64.053
  C     -388.032    -451.247      64.928
  O     -387.023    -451.301      63.913
  C     -389.135    -450.264      64.565
  O     -388.659    -449.005      64.129
  C     -389.867    -451.079      63.492
  N     -391.185    -450.581      63.118
  C     -391.250    -449.620      62.101
  O     -390.236    -449.163      61.581
  N     -392.488    -449.171      61.702
  C     -393.561    -449.630      62.267
  N     -394.753    -449.151      61.818
  C     -393.536    -450.626      63.351
  C     -392.329    -451.054      63.718
  O     -388.397    -455.743      67.566
  O     -390.537    -456.718      66.591
  H     -390.651    -456.887      67.546
  H     -388.040    -449.158      63.391
  H     -394.453    -450.988      63.789
  H     -392.227    -451.810      64.492
  H     -389.235    -451.154      62.600
  H     -389.760    -450.097      65.447
  H     -387.553    -451.041      65.891
  H     -388.160    -453.351      64.379
  H     -394.731    -448.473      61.065
  H     -388.266    -453.424      66.798
  H     -395.647    -449.445      62.180
  H     -389.697    -452.377      66.836
  P     -385.485    -451.476      64.333
  C     -384.692    -453.137      62.491
  O     -384.656    -451.823      63.005
  O     -385.510    -452.895      65.086
  O     -384.923    -450.424      65.233
  H     -384.767    -452.932      65.718
  H     -384.825    -453.087      61.408
  H     -385.508    -453.728      62.914
  H     -383.743    -453.633      62.708
  H     -387.424    -457.468      63.919
  H     -388.361    -458.223      65.186
  H     -386.951    -457.274      65.590

 3  4  5  6  7  8  9  10  11  12  13  24  27  28  29  30  32 0
 6-311+G(2d,p)
 ****
 34  35 0
 6-311+G(2d,p)
 ****
 1  2  14  15  16  17  18  19  20  21  22  23  25  26 0
 3-21G
 ****
 31  33  36  37  38  39  40  41  42  43  44  45  46 0
 3-21G
 ****


