%nproc=1
%NoSave
%Mem=1900MB
#P OB98/GEN NMR

erre ene a

0 1
  C     -733.683     768.666     918.757
  O     -734.424     767.680     918.069
  H     -733.892     768.593     919.820
  H     -733.952     769.666     918.408
  H     -732.601     768.504     918.602
  P     -734.329     767.692     916.465
  C     -732.503     765.838     916.331
  O     -732.818     767.210     916.181
  C     -731.832     765.318     915.049
  O     -730.761     766.196     914.652
  C     -731.204     763.914     915.187
  O     -732.129     762.875     915.154
  C     -730.296     763.926     913.969
  O     -731.095     763.731     912.783
  C     -729.731     765.357     914.029
  N     -728.465     765.457     914.783
  C     -727.436     764.588     914.404
  O     -727.619     763.771     913.480
  N     -726.266     764.609     915.107
  C     -726.097     765.438     916.082
  N     -724.896     765.415     916.725
  C     -727.145     766.394     916.514
  C     -728.286     766.347     915.821
  O     -734.276     769.248     916.111
  O     -735.391     766.924     915.740
  H     -730.537     763.952     912.036
  H     -734.071     769.377     915.154
  H     -726.983     767.071     917.337
  H     -729.098     767.020     916.077
  H     -729.549     765.770     913.005
  H     -729.549     763.134     913.975
  H     -730.565     763.857     916.088
  H     -732.580     765.319     914.251
  H     -724.223     764.718     916.459
  H     -733.430     765.282     916.525
  H     -724.753     765.936     917.592
  H     -731.818     765.686     917.167
  P     -731.865     761.598     916.115
  C     -733.692     762.134     917.928
  O     -732.296     762.059     917.603
  O     -730.266     761.550     916.197
  O     -732.462     760.317     915.648
  H     -729.943     760.628     916.265
  H     -733.805     762.452     918.943
  H     -734.139     761.170     917.804
  H     -734.172     762.836     917.279

 6  7  8  9  10  11  12  13  14  15  16  26  30  31  32  33  35 0
 6-311+G(2d,p)
 ****
 37  38 0
 6-311+G(2d,p)
 ****
 1  2  3  4  5  17  18  19  20  21  22  23  24  25 0
 3-21G
 ****
 27  28  29  34  36  39  40  41  42  43  44  45  46 0
 3-21G
 ****


