%nproc=1
%NoSave
%Mem=1900MB
#P OB98/GEN NMR

erre ene a

0 1
  C      299.240     233.799      80.333
  O      300.467     234.431      80.028
  H      298.444     234.548      80.298
  H      299.279     233.375      81.339
  H      299.021     233.015      79.603
  P      301.744     233.471      79.844
  C      303.390     234.612      81.538
  O      303.015     234.382      80.192
  C      303.667     236.098      81.771
  O      304.781     236.500      80.939
  C      302.486     237.008      81.438
  O      302.451     238.078      82.382
  C      302.825     237.544      80.057
  O      302.166     238.780      79.788
  C      304.356     237.612      80.122
  N      304.970     237.568      78.800
  C      304.915     238.743      78.038
  O      304.349     239.740      78.485
  N      305.461     238.746      76.780
  C      305.956     237.651      76.292
  N      306.462     237.713      75.029
  C      305.987     236.375      77.035
  C      305.495     236.408      78.269
  O      301.807     233.317      78.251
  O      301.653     232.182      80.588
  H      302.453     239.092      78.902
  H      301.632     234.144      77.772
  H      306.399     235.485      76.578
  H      305.486     235.519      78.892
  H      304.680     238.534      80.623
  H      302.510     236.823      79.290
  H      301.525     236.489      81.440
  H      303.988     236.233      82.810
  H      306.403     238.601      74.545
  H      304.284     234.032      81.788
  H      306.822     236.914      74.533
  H      302.572     234.274      82.180
  P      301.990     237.783      83.886
  C      301.005     240.137      84.259
  O      301.945     239.166      84.699
  O      302.703     236.670      84.578
  O      300.428     237.436      83.720
  H      300.215     236.714      84.341
  H      301.074     241.007      84.879
  H      300.017     239.731      84.323
  H      301.216     240.404      83.245

 6  7  8  9  10  11  12  13  14  15  16  26  30  31  32  33  35 0
 6-311+G(2d,p)
 ****
 37  38 0
 6-311+G(2d,p)
 ****
 1  2  3  4  5  17  18  19  20  21  22  23  24  25 0
 3-21G
 ****
 27  28  29  34  36  39  40  41  42  43  44  45  46 0
 3-21G
 ****


