%nproc=1
%NoSave
%Mem=1900MB
#P OB98/GEN NMR

erre ene a

0 1
  C       10.139    -180.524    -213.780
  O        9.972    -181.667    -214.634
  P       10.545    -183.076    -214.110
  C       12.708    -183.291    -215.581
  O       11.363    -183.693    -215.345
  C       13.423    -184.338    -216.432
  O       12.986    -184.264    -217.814
  C       14.939    -184.177    -216.479
  O       15.541    -184.600    -215.264
  C       15.285    -185.024    -217.694
  O       15.321    -186.418    -217.341
  C       14.079    -184.750    -218.629
  N       14.395    -183.822    -219.710
  C       15.319    -184.277    -220.651
  O       15.867    -185.377    -220.573
  N       15.610    -183.409    -221.668
  C       15.100    -182.153    -221.823
  O       15.384    -181.422    -222.767
  C       14.166    -181.708    -220.774
  C       13.863    -182.547    -219.780
  O        9.205    -183.942    -214.043
  O       11.295    -182.955    -212.823
  H        8.572    -183.728    -214.749
  H       15.570    -186.900    -218.152
  H       16.263    -183.726    -222.367
  H       13.761    -180.706    -220.848
  H       13.174    -182.237    -218.994
  H       13.730    -185.688    -219.077
  H       16.260    -184.767    -218.124
  H       15.193    -183.125    -216.674
  H       13.162    -185.337    -216.040
  H       13.236    -183.178    -214.630
  H       12.703    -182.313    -216.077
  P       16.282    -183.468    -214.386
  C       18.700    -184.462    -214.437
  O       17.538    -184.183    -213.691
  O       15.229    -183.267    -213.194
  O       16.588    -182.223    -215.152
  H       14.887    -184.105    -212.842
  H       19.536    -184.613    -213.742
  H       18.951    -183.642    -215.108
  H       18.555    -185.382    -215.014
  H        9.714    -179.662    -214.251
  H       11.182    -180.358    -213.606
  H        9.645    -180.701    -212.847

 3  4  5  6  7  8  9  10  11  12  13  24  28  29  30  31  32 0
 6-311+G(2d,p)
 ****
 33  34 0
 6-311+G(2d,p)
 ****
 1  2  14  15  16  17  18  19  20  21  22  23  25  26  27 0
 3-21G
 ****
 35  36  37  38  39  40  41  42  43  44  45 0
 3-21G
 ****


