%nproc=1
%NoSave
%Mem=1900MB
#P OB98/GEN NMR

erre ene a

0 1
  C     -712.272    -381.022    1526.319
  O     -710.863    -381.016    1526.415
  H     -712.549    -381.241    1525.288
  H     -712.675    -380.049    1526.600
  H     -712.694    -381.804    1526.969
  P     -710.178    -380.654    1527.825
  C     -709.411    -378.485    1526.648
  O     -709.061    -379.551    1527.520
  C     -708.289    -378.220    1525.649
  O     -707.365    -377.275    1526.253
  C     -707.491    -379.493    1525.292
  O     -707.406    -379.725    1523.886
  C     -706.204    -379.334    1526.074
  O     -705.099    -380.014    1525.530
  C     -706.047    -377.819    1526.167
  N     -705.229    -377.370    1527.313
  C     -703.860    -377.246    1527.101
  O     -703.260    -377.456    1526.048
  N     -703.132    -376.839    1528.209
  C     -703.634    -376.581    1529.442
  O     -702.937    -376.226    1530.385
  C     -705.090    -376.752    1529.606
  C     -705.808    -377.152    1528.539
  O     -709.719    -381.830    1528.616
  O     -711.306    -379.827    1528.604
  H     -704.839    -379.537    1524.708
  H     -711.713    -380.389    1529.287
  H     -702.136    -376.732    1528.061
  H     -705.511    -376.570    1530.582
  H     -706.878    -377.282    1528.614
  H     -705.556    -377.427    1525.265
  H     -706.353    -379.741    1527.093
  H     -708.029    -380.380    1525.657
  H     -708.703    -377.745    1524.753
  H     -709.593    -377.592    1527.260
  H     -710.339    -378.747    1526.117
  P     -708.363    -380.683    1523.048
  C     -706.539    -381.134    1521.190
  O     -707.854    -380.699    1521.536
  O     -709.822    -380.505    1523.263
  O     -707.963    -382.174    1523.563
  H     -708.780    -382.703    1523.512
  H     -706.407    -381.064    1520.130
  H     -706.406    -382.150    1521.500
  H     -705.818    -380.514    1521.681

 6  7  8  9  10  11  12  13  14  15  16  26  31  32  33  34  35 0
 6-311+G(2d,p)
 ****
 36  37 0
 6-311+G(2d,p)
 ****
 1  2  3  4  5  17  18  19  20  21  22  23  24  25 0
 3-21G
 ****
 27  28  29  30  38  39  40  41  42  43  44  45 0
 3-21G
 ****


