%nproc=1
%NoSave
%Mem=1900MB
#P OB98/GEN NMR

erre ene a

0 1
  C     -153.151    -120.036     151.968
  O     -154.356    -120.696     151.627
  P     -155.762    -120.220     152.232
  C     -155.706    -122.547     153.333
  O     -156.004    -121.166     153.510
  C     -155.091    -123.114     154.607
  O     -153.952    -122.297     154.973
  C     -155.993    -123.123     155.843
  O     -156.863    -124.234     155.933
  C     -154.958    -123.204     156.956
  O     -154.488    -124.559     157.084
  C     -153.832    -122.305     156.417
  N     -153.224    -119.311     160.523
  C     -153.024    -120.631     160.330
  N     -153.229    -121.366     159.209
  C     -153.641    -120.576     158.208
  C     -153.893    -119.211     158.251
  C     -153.659    -118.569     159.481
  N     -153.845    -117.216     159.667
  N     -154.330    -118.752     157.018
  C     -154.337    -119.826     156.249
  N     -153.923    -120.945     156.920
  O     -156.878    -120.166     151.246
  O     -155.447    -118.800     152.892
  H     -153.649    -124.523     157.582
  H     -156.283    -118.311     153.053
  H     -152.649    -121.185     161.191
  H     -154.633    -119.831     155.222
  H     -152.832    -122.691     156.664
  H     -155.351    -122.902     157.928
  H     -156.544    -122.173     155.934
  H     -154.720    -124.133     154.391
  H     -154.982    -122.644     152.513
  H     -153.530    -116.817     160.539
  H     -154.009    -116.639     158.854
  H     -156.612    -123.093     153.056
  P     -158.444    -123.944     155.814
  C     -158.577    -123.132     158.296
  O     -158.766    -122.841     156.928
  O     -159.303    -125.168     155.850
  O     -158.556    -123.120     154.438
  H     -158.147    -122.243     154.452
  H     -158.690    -122.207     158.875
  H     -157.575    -123.527     158.477
  H     -159.326    -123.849     158.637
  H     -152.332    -120.504     151.462
  H     -152.998    -120.096     153.025
  H     -153.211    -119.009     151.674

 3  4  5  6  7  8  9  10  11  12  22  25  29  30  31  32 0
 6-311+G(2d,p)
 ****
 33  36  37 0
 6-311+G(2d,p)
 ****
 1  2  13  14  15  16  17  18  19  20  21  23  24  26 0
 3-21G
 ****
 27  28  34  35  38  39  40  41  42  43  44  45  46  47  48 0
 3-21G
 ****


