%nproc=1
%NoSave
%Mem=1900MB
#P OB98/GEN NMR

erre ene a

0 1
  C      232.976    -112.716    -440.918
  O      234.262    -112.607    -441.492
  H      232.612    -113.743    -440.997
  H      233.039    -112.446    -439.860
  H      232.279    -112.035    -441.415
  P      234.390    -112.953    -443.053
  C      235.597    -115.143    -442.344
  O      234.575    -114.544    -443.133
  C      235.034    -116.356    -441.613
  O      233.852    -115.986    -440.871
  C      234.603    -117.499    -442.530
  O      235.699    -118.296    -442.940
  C      233.676    -118.265    -441.605
  O      234.453    -119.035    -440.669
  C      232.946    -117.124    -440.880
  N      227.999    -118.299    -441.459
  C      228.996    -118.900    -440.770
  N      230.286    -118.523    -440.672
  C      230.514    -117.407    -441.381
  C      229.602    -116.692    -442.135
  C      228.283    -117.177    -442.156
  N      227.269    -116.574    -442.868
  N      230.214    -115.614    -442.748
  C      231.467    -115.667    -442.340
  N      231.701    -116.742    -441.519
  O      235.841    -112.396    -443.445
  O      233.312    -112.402    -443.930
  H      233.819    -119.466    -440.068
  H      235.898    -112.256    -444.408
  H      228.715    -119.800    -440.230
  H      232.238    -114.958    -442.609
  H      232.715    -117.370    -439.836
  H      233.025    -118.963    -442.133
  H      234.030    -117.129    -443.392
  H      235.789    -116.698    -440.891
  H      235.958    -114.415    -441.613
  H      226.413    -117.102    -442.965
  H      227.508    -115.828    -443.507
  H      236.426    -115.439    -442.995
  P      236.171    -118.176    -444.471
  C      235.102    -120.515    -444.865
  O      235.221    -119.162    -445.299
  O      237.582    -118.922    -444.477
  O      236.262    -116.777    -444.983
  H      238.152    -118.583    -445.191
  H      234.437    -121.041    -445.517
  H      234.716    -120.537    -443.867
  H      236.065    -120.982    -444.885

 6  7  8  9  10  11  12  13  14  15  25  28  32  33  34  35 0
 6-311+G(2d,p)
 ****
 36  39  40 0
 6-311+G(2d,p)
 ****
 1  2  3  4  5  16  17  18  19  20  21  22  23  24 0
 3-21G
 ****
 26  27  29  30  31  37  38  41  42  43  44  45  46  47 0
 3-21G
 ****
 48 0
 3-21G
 ****


