%nproc=1
%NoSave
%Mem=1900MB
#P OB98/GEN NMR

erre ene a

0 1
  C      592.001     867.969    -253.456
  O      592.072     866.587    -253.180
  H      592.958     868.297    -253.867
  H      591.808     868.520    -252.528
  H      591.212     868.186    -254.182
  P      590.718     865.759    -253.005
  C      591.728     865.236    -250.684
  O      590.871     864.798    -251.737
  C      591.668     864.314    -249.466
  O      590.327     864.296    -248.942
  C      592.025     862.857    -249.821
  O      593.402     862.568    -249.771
  C      591.270     862.086    -248.755
  O      592.050     861.930    -247.557
  C      590.036     862.970    -248.473
  N      585.766     860.193    -247.992
  C      586.846     860.303    -247.117
  N      586.769     859.540    -246.002
  N      587.873     861.063    -247.340
  C      587.845     861.679    -248.542
  C      586.845     861.637    -249.491
  C      585.669     860.855    -249.204
  O      584.689     860.737    -249.936
  N      587.188     862.367    -250.602
  C      588.422     862.770    -250.367
  N      588.830     862.457    -249.086
  O      590.748     864.723    -254.231
  O      589.454     866.574    -253.044
  H      592.903     861.536    -247.802
  H      589.839     864.531    -254.533
  H      584.984     859.611    -247.751
  H      589.040     863.334    -251.059
  H      589.842     863.049    -247.391
  H      591.019     861.082    -249.097
  H      586.037     858.861    -245.824
  H      591.616     862.590    -250.795
  H      587.619     859.438    -245.428
  H      592.316     864.711    -248.679
  H      591.394     866.236    -250.411
  H      592.761     865.320    -251.046
  P      594.242     862.290    -251.103
  C      595.144     859.910    -250.389
  O      595.409     861.257    -250.770
  O      595.016     863.666    -251.341
  O      593.436     861.892    -252.290
  H      594.566     864.214    -251.995
  H      596.068     859.400    -250.214
  H      594.607     859.417    -251.172
  H      594.557     859.901    -249.494

 6  7  8  9  10  11  12  13  14  15  26  29  33  34 0
 6-311+G(2d,p)
 ****
 36  38  39  40  41 0
 6-311+G(2d,p)
 ****
 1  2  3  4  5  16  17  18  19  20  21  22  23  24  25 0
 3-21G
 ****
 27  28  30  31  32  35  37  42  43  44  45  46  47 0
 3-21G
 ****
 48  49 0
 3-21G
 ****


