%nproc=1
%NoSave
%Mem=1900MB
#P OB98/GEN NMR

erre ene a

0 1
  C        7.537      -8.481      58.216
  O        8.600      -8.934      59.036
  P        9.275     -10.344      58.662
  C        7.916     -11.389      60.613
  O        9.183     -11.254      59.981
  C        7.714     -12.805      61.156
  O        6.477     -12.847      61.907
  C        7.649     -13.884      60.075
  O        8.296     -15.052      60.583
  C        6.164     -14.163      59.942
  O        5.916     -15.469      59.426
  C        5.686     -13.934      61.385
  N        4.259     -13.639      61.452
  C        3.403     -14.714      61.709
  O        3.855     -15.856      61.788
  N        2.056     -14.476      61.818
  C        1.593     -13.288      61.582
  N        0.252     -13.101      61.705
  C        2.450     -12.153      61.187
  C        3.760     -12.392      61.163
  O       10.830      -9.982      58.572
  O        8.763     -10.965      57.405
  H        4.944     -15.578      59.328
  H       11.279     -10.539      57.908
  H        2.010     -11.191      60.966
  H        4.466     -11.613      60.907
  H        5.888     -14.819      62.003
  H        5.706     -13.431      59.266
  H        8.123     -13.577      59.138
  H        8.528     -13.021      61.859
  H       -0.316     -13.898      61.963
  H        7.130     -11.189      59.880
  H       -0.197     -12.211      61.540
  H        7.830     -10.651      61.416
  P        9.541     -15.632      59.756
  C        8.236     -17.815      59.405
  O        9.424     -17.225      59.894
  O       10.760     -15.314      60.750
  O        9.801     -15.088      58.392
  H       11.601     -15.566      60.328
  H        8.346     -18.902      59.435
  H        8.053     -17.507      58.372
  H        7.390     -17.530      60.038
  H        7.185      -7.537      58.577
  H        6.739      -9.193      58.241
  H        7.885      -8.371      57.210

 3  4  5  6  7  8  9  10  11  12  13  21  23  27  28  29  30  32 0
 6-311+G(2d,p)
 ****
 34  35 0
 6-311+G(2d,p)
 ****
 1  2  14  15  16  17  18  19  20  22  24  25  26 0
 3-21G
 ****
 31  33  36  37  38  39  40  41  42  43  44  45  46 0
 3-21G
 ****


