%nproc=1
%NoSave
%Mem=1900MB
#P OB98/GEN NMR

erre ene a

0 1
  C     -503.133    -338.565    -611.098
  O     -503.708    -338.601    -612.391
  H     -502.336    -337.818    -611.084
  H     -502.689    -339.535    -610.840
  H     -503.886    -338.293    -610.355
  P     -504.789    -339.739    -612.708
  C     -506.502    -338.678    -611.081
  O     -505.716    -339.816    -611.402
  C     -507.985    -339.014    -611.192
  O     -508.312    -340.131    -610.342
  C     -508.892    -337.866    -610.750
  O     -508.959    -336.858    -611.733
  C     -510.186    -338.624    -610.499
  O     -510.892    -338.878    -611.719
  C     -509.668    -339.939    -609.873
  N     -509.722    -339.931    -608.405
  C     -510.961    -340.199    -607.845
  O     -511.939    -340.432    -608.559
  N     -511.078    -340.189    -606.470
  C     -510.043    -339.930    -605.731
  N     -510.211    -339.931    -604.388
  C     -508.706    -339.651    -606.302
  C     -508.614    -339.668    -607.627
  O     -504.263    -341.059    -613.180
  O     -505.753    -339.049    -613.788
  H     -510.830    -338.061    -612.241
  H     -505.430    -339.217    -614.694
  H     -507.858    -339.451    -605.651
  H     -507.668    -339.467    -608.123
  H     -510.250    -340.795    -610.230
  H     -510.858    -338.061    -609.838
  H     -508.550    -337.461    -609.790
  H     -508.200    -339.307    -612.231
  H     -511.155    -340.106    -604.046
  H     -506.235    -337.887    -611.790
  H     -509.463    -339.835    -603.723
  H     -506.277    -338.319    -610.068
  P     -508.875    -335.315    -611.327
  C     -506.648    -335.188    -612.631
  O     -507.306    -334.944    -611.396
  O     -509.555    -334.959    -610.051
  O     -509.464    -334.561    -612.608
  H     -510.457    -334.656    -612.654
  H     -505.620    -334.903    -612.550
  H     -507.117    -334.616    -613.404
  H     -506.712    -336.229    -612.869

 6  7  8  9  10  11  12  13  14  15  16  26  30  31  32  33  35 0
 6-311+G(2d,p)
 ****
 37  38 0
 6-311+G(2d,p)
 ****
 1  2  3  4  5  17  18  19  20  21  22  23  24  25 0
 3-21G
 ****
 27  28  29  34  36  39  40  41  42  43  44  45  46 0
 3-21G
 ****


