%nproc=1
%NoSave
%Mem=1900MB
#P OB98/GEN NMR

erre ene a

0 1
  C     1251.609    -309.330    -891.570
  O     1252.375    -308.120    -891.530
  P     1251.760    -306.706    -891.120
  C     1251.518    -306.098    -893.610
  O     1250.877    -306.128    -892.350
  C     1250.765    -305.167    -894.570
  O     1250.461    -303.895    -893.970
  C     1251.554    -304.808    -895.870
  O     1251.549    -305.883    -896.770
  C     1250.773    -303.588    -896.310
  O     1249.594    -303.948    -897.050
  C     1250.409    -302.904    -894.980
  N     1251.275    -301.793    -894.670
  C     1251.288    -300.698    -895.580
  O     1250.629    -300.783    -896.630
  N     1252.043    -299.578    -895.320
  C     1252.798    -299.591    -894.240
  N     1253.526    -298.463    -894.020
  C     1252.885    -300.729    -893.290
  C     1252.117    -301.789    -893.580
  O     1252.757    -305.739    -890.570
  O     1250.653    -307.042    -889.990
  H     1249.910    -304.570    -897.760
  H     1250.584    -306.295    -889.370
  H     1253.570    -300.684    -892.450
  H     1252.101    -302.667    -892.930
  H     1249.381    -302.560    -895.010
  H     1251.378    -302.942    -896.980
  H     1252.575    -304.538    -895.550
  H     1249.798    -305.637    -894.860
  H     1253.451    -297.710    -894.690
  H     1251.509    -307.107    -894.030
  H     1254.147    -298.364    -893.240
  H     1252.529    -305.767    -893.490
  P     1252.955    -306.602    -897.140
  C     1253.177    -305.045    -899.170
  O     1253.785    -305.555    -897.980
  O     1252.826    -307.972    -897.760
  O     1253.742    -306.685    -895.740
  H     1254.279    -307.450    -895.750
  H     1253.652    -304.079    -899.420
  H     1252.110    -304.877    -899.000
  H     1253.344    -305.727    -900.000
  H     1252.239    -310.141    -891.872
  H     1250.807    -309.221    -892.270
  H     1251.209    -309.531    -890.598

 3  4  5  6  7  8  9  10  11  12  13  23  27  28  29  30  32 0
 6-311+G(2d,p)
 ****
 34  35 0
 6-311+G(2d,p)
 ****
 1  2  14  15  16  17  18  19  20  21  22  24  25  26 0
 3-21G
 ****
 31  33  36  37  38  39  40  41  42  43  44  45  46 0
 3-21G
 ****


