%nproc=1
%NoSave
%Mem=1900MB
#P OB98/GEN NMR

erre ene a

0 1
  C     -249.184      14.249    -178.248
  O     -249.189      14.113    -179.654
  H     -250.196      14.129    -177.850
  H     -248.542      13.473    -177.823
  H     -248.786      15.229    -177.968
  P     -250.162      15.100    -180.462
  C     -251.851      13.179    -180.885
  O     -251.638      14.476    -180.348
  C     -253.322      12.799    -180.773
  O     -253.664      12.521    -179.400
  C     -254.297      13.883    -181.219
  O     -254.415      13.944    -182.634
  C     -255.583      13.389    -180.570
  O     -256.165      12.351    -181.380
  C     -255.079      12.800    -179.244
  N     -258.043      13.963    -175.213
  C     -258.148      13.006    -176.163
  N     -257.332      12.763    -177.209
  C     -256.301      13.624    -177.218
  C     -256.061      14.649    -176.319
  C     -256.993      14.812    -175.279
  N     -256.885      15.802    -174.326
  N     -254.899      15.316    -176.638
  C     -254.442      14.707    -177.713
  N     -255.258      13.681    -178.106
  O     -249.770      14.841    -181.995
  O     -250.047      16.545    -180.105
  H     -257.018      12.120    -180.967
  H     -249.839      15.682    -182.485
  H     -259.003      12.342    -176.068
  H     -253.527      14.970    -178.232
  H     -255.569      11.847    -179.016
  H     -256.334      14.173    -180.454
  H     -254.029      14.857    -180.795
  H     -253.478      11.877    -181.350
  H     -251.249      12.451    -180.330
  H     -257.463      15.745    -173.505
  H     -256.089      16.429    -174.380
  H     -251.535      13.174    -181.933
  P     -254.343      15.395    -183.320
  C     -256.913      15.731    -183.457
  O     -255.685      16.150    -182.869
  O     -254.603      15.078    -184.867
  O     -253.066      16.134    -183.109
  H     -254.203      15.776    -185.420
  H     -257.716      16.319    -183.064
  H     -257.083      14.699    -183.231
  H     -256.863      15.860    -184.518

 6  7  8  9  10  11  12  13  14  15  25  28  32  33  34  35 0
 6-311+G(2d,p)
 ****
 36  39  40 0
 6-311+G(2d,p)
 ****
 1  2  3  4  5  16  17  18  19  20  21  22  23  24 0
 3-21G
 ****
 26  27  29  30  31  37  38  41  42  43  44  45  46  47  48 0
 3-21G
 ****


