%nproc=1
%NoSave
%Mem=1900MB
#P OB98/GEN NMR

erre ene a

0 1
  C     -449.425    1125.064    -149.677
  O     -448.141    1125.217    -150.273
  P     -447.630    1126.718    -150.566
  C     -446.656    1125.891    -152.824
  O     -446.412    1126.572    -151.586
  C     -445.393    1125.856    -153.672
  O     -445.076    1127.212    -154.129
  C     -444.130    1125.373    -152.976
  O     -444.086    1123.937    -152.911
  C     -443.051    1125.922    -153.877
  O     -442.872    1125.058    -155.012
  C     -443.632    1127.269    -154.328
  N     -439.835    1130.591    -153.918
  C     -440.012    1129.563    -154.801
  N     -439.073    1129.406    -155.747
  N     -441.047    1128.739    -154.776
  C     -441.949    1129.057    -153.828
  C     -441.889    1130.057    -152.861
  C     -440.716    1130.903    -152.872
  O     -440.481    1131.800    -152.067
  N     -443.015    1130.045    -152.072
  C     -443.761    1129.083    -152.563
  N     -443.147    1128.411    -153.599
  O     -446.910    1127.122    -149.186
  O     -448.699    1127.688    -150.935
  H     -442.598    1124.177    -154.666
  H     -446.918    1128.098    -149.086
  H     -439.043    1131.200    -153.992
  H     -444.743    1128.814    -152.166
  H     -443.480    1127.451    -155.391
  H     -442.086    1126.014    -153.365
  H     -438.329    1130.070    -155.902
  H     -444.051    1125.819    -151.982
  H     -439.191    1128.684    -156.435
  H     -445.600    1125.250    -154.567
  H     -447.451    1126.404    -153.368
  H     -446.980    1124.866    -152.603
  P     -444.044    1123.302    -151.426
  C     -442.271    1121.602    -152.302
  O     -443.521    1121.812    -151.657
  O     -445.591    1123.113    -151.081
  O     -443.332    1124.123    -150.412
  H     -445.737    1123.118    -150.107
  H     -441.559    1122.405    -151.984
  H     -442.403    1121.626    -153.364
  H     -441.867    1120.645    -151.975
  H     -449.633    1124.023    -149.541
  H     -450.168    1125.496    -150.314
  H     -449.439    1125.558    -148.728

 3  4  5  6  7  8  9  10  11  12  23  26  30  31  33  0
 6-311+G(2d,p)
 ****
 35  36  37  38 0
 6-311+G(2d,p)
 ****
 1  2  13  14  15  16  17  18  19  20  21  22  24  25  27  28  29 0
 3-21G
 ****
 32  34  39  40  41  42  43  44  45  46  47  48  49 0
 3-21G
 ****


