%nproc=1
%NoSave
%Mem=1900MB
#P OB98/GEN NMR

erre ene a

0 1
  C      584.467    -520.534     776.208
  O      583.870    -521.228     775.137
  H      583.698    -520.293     776.947
  H      584.909    -519.600     775.852
  H      585.236    -521.149     776.689
  P      584.841    -521.824     774.009
  C      584.525    -524.276     774.805
  O      585.432    -523.205     774.589
  C      585.286    -525.530     775.248
  O      586.121    -525.201     776.385
  C      584.368    -526.688     775.655
  O      584.957    -527.910     775.203
  C      584.391    -526.643     777.174
  O      584.095    -527.908     777.763
  C      585.811    -526.113     777.445
  N      585.896    -525.486     778.761
  C      586.823    -526.020     779.656
  O      587.514    -526.984     779.330
  N      586.912    -525.492     780.920
  C      586.077    -524.560     781.279
  N      586.193    -524.103     782.560
  C      585.035    -524.018     780.391
  C      585.004    -524.512     779.155
  O      586.104    -520.843     774.045
  O      584.248    -521.934     772.644
  H      583.132    -528.081     777.641
  H      586.514    -520.754     773.163
  H      584.345    -523.265     780.752
  H      584.271    -524.173     778.435
  H      586.536    -526.939     777.399
  H      583.644    -525.924     777.529
  H      583.355    -526.599     775.252
  H      585.958    -525.830     774.431
  H      586.909    -524.513     783.147
  H      583.999    -524.491     773.868
  H      585.572    -523.413     782.960
  H      583.788    -523.989     775.567
  P      584.094    -528.799     774.177
  C      585.702    -528.500     772.159
  O      584.402    -528.278     772.694
  O      582.595    -528.313     774.450
  O      584.241    -530.272     774.385
  H      582.095    -529.004     774.914
  H      585.753    -528.099     771.168
  H      585.901    -529.551     772.129
  H      586.429    -528.017     772.778

 6  7  8  9  10  11  12  13  14  15  16  26  30  31  32  33  35 0
 6-311+G(2d,p)
 ****
 37  38 0
 6-311+G(2d,p)
 ****
 1  2  3  4  5  17  18  19  20  21  22  23  24  25 0
 3-21G
 ****
 27  28  29  34  36  39  40  41  42  43  44  45  46 0
 3-21G
 ****


