%nproc=1
%NoSave
%Mem=1900MB
#P OB98/GEN NMR

erre ene a

0 1
  C       87.933    -307.287    -116.586
  O       89.050    -308.183    -116.654
  P       88.786    -309.678    -117.168
  C       88.537    -310.485    -119.629
  O       89.328    -309.792    -118.674
  C       89.423    -311.024    -120.759
  O       90.111    -309.959    -121.453
  C       90.507    -311.979    -120.283
  O       90.012    -313.302    -120.117
  C       91.474    -311.934    -121.460
  O       90.996    -312.790    -122.517
  C       91.402    -310.462    -121.882
  N       94.656    -306.681    -122.730
  C       93.709    -307.242    -123.562
  N       93.609    -306.715    -124.806
  N       92.928    -308.232    -123.212
  C       93.129    -308.645    -121.942
  C       94.036    -308.170    -121.016
  C       94.901    -307.082    -121.422
  O       95.770    -306.552    -120.731
  N       93.946    -308.847    -119.829
  C       92.975    -309.720    -120.022
  N       92.457    -309.650    -121.291
  O       87.193    -309.710    -117.360
  O       89.251    -310.742    -116.226
  H       90.086    -312.499    -122.722
  H       86.865    -310.621    -117.242
  H       95.235    -305.920    -123.054
  H       92.610    -310.416    -119.275
  H       91.465    -310.334    -122.970
  H       92.473    -312.291    -121.189
  H       94.139    -305.921    -125.124
  H       90.998    -311.603    -119.375
  H       92.897    -307.096    -125.418
  H       88.775    -311.546    -121.477
  H       87.772    -309.824    -120.044
  H       87.996    -311.290    -119.123
  P       89.377    -313.693    -118.695
  C       86.894    -313.562    -117.948
  O       87.970    -312.931    -118.612
  O       90.309    -312.900    -117.662
  O       89.351    -315.155    -118.404
  H       90.375    -313.395    -116.821
  H       86.075    -312.838    -117.847
  H       87.191    -313.897    -116.951
  H       86.537    -314.416    -118.532
  H       88.262    -306.334    -116.228
  H       87.197    -307.684    -115.918
  H       87.506    -307.174    -117.561

 3  4  5  6  7  8  9  10  11  12  23  26  30  31 0
 6-311+G(2d,p)
 ****
 33  35  36  37  38 0
 6-311+G(2d,p)
 ****
 1  2  13  14  15  16  17  18  19  20  21  22  24  25 0
 3-21G
 ****
 27  28  29  32  34  39  40  41  42  43  44  45  46  47  48  49 0
 3-21G
 ****


