%nproc=1
%NoSave
%Mem=1900MB
#P OB98/GEN NMR

erre ene a

0 1
  C      207.622      95.161     -70.890
  O      207.585      95.837     -69.645
  P      208.152      97.338     -69.593
  C      210.595      97.404     -68.615
  O      209.745      97.206     -69.733
  C      210.691      96.115     -67.793
  O      210.943      94.994     -68.664
  C      211.824      96.100     -66.774
  O      211.504      96.864     -65.621
  C      211.971      94.603     -66.520
  O      210.964      94.150     -65.601
  C      211.710      94.019     -67.924
  N      212.934      93.658     -68.636
  C      213.536      92.461     -68.255
  O      213.084      91.730     -67.375
  N      214.696      92.140     -68.913
  C      215.329      92.911     -69.845
  O      216.390      92.596     -70.372
  C      214.663      94.180     -70.182
  C      213.517      94.487     -69.571
  O      207.906      97.690     -68.053
  O      207.488      98.250     -70.567
  H      207.912      96.893     -67.493
  H      211.279      93.296     -65.245
  H      215.137      91.267     -68.672
  H      215.142      94.820     -70.910
  H      213.019      95.424     -69.801
  H      211.077      93.126     -67.851
  H      212.945      94.341     -66.096
  H      212.742      96.487     -67.229
  H      209.724      95.953     -67.298
  H      210.187      98.206     -67.994
  H      211.585      97.704     -68.971
  P      212.711      97.706     -64.963
  C      213.342      96.525     -62.718
  O      213.568      96.661     -64.105
  O      211.924      98.569     -63.868
  O      213.484      98.516     -65.951
  H      211.251      98.056     -63.394
  H      213.738      95.559     -62.392
  H      212.274      96.568     -62.483
  H      213.868      97.323     -62.182
  H      207.215      94.178     -70.774
  H      208.635      95.090     -71.227
  H      207.044      95.704     -71.608

 3  4  5  6  7  8  9  10  11  12  13  24  28  29  30  31  32 0
 6-311+G(2d,p)
 ****
 33  34 0
 6-311+G(2d,p)
 ****
 1  2  14  15  16  17  18  19  20  21  22  23  25  26  27 0
 3-21G
 ****
 35  36  37  38  39  40  41  42  43  44  45 0
 3-21G
 ****


