%nproc=1
%NoSave
%Mem=1900MB
#P OB98/GEN NMR

erre ene a

0 1
  C     -596.722      90.844    -281.225
  O     -596.210      91.827    -280.300
  P     -597.040      92.084    -278.974
  C     -598.132      94.313    -279.740
  O     -597.260      93.671    -278.813
  C     -598.543      95.691    -279.200
  O     -599.205      95.586    -277.914
  C     -597.361      96.630    -278.988
  O     -596.903      97.150    -280.222
  C     -598.010      97.683    -278.081
  O     -598.801      98.620    -278.839
  C     -598.920      96.814    -277.189
  N     -598.204      98.461    -272.395
  C     -598.818      99.025    -273.462
  N     -598.962      98.513    -274.717
  C     -598.411      97.298    -274.794
  C     -597.746      96.596    -273.802
  C     -597.644      97.248    -272.548
  N     -596.979      96.673    -271.464
  N     -597.287      95.379    -274.259
  C     -597.659      95.353    -275.533
  N     -598.350      96.500    -275.909
  O     -596.014      91.725    -277.797
  O     -598.294      91.251    -278.874
  H     -598.188      99.301    -279.188
  H     -596.262      90.882    -277.373
  H     -599.270     100.007    -273.292
  H     -597.444      94.537    -276.226
  H     -599.890      97.286    -277.001
  H     -597.276      98.260    -277.515
  H     -596.543      96.111    -278.467
  H     -599.262      96.133    -279.913
  H     -599.027      93.698    -279.921
  H     -596.893      97.237    -270.628
  H     -596.510      95.806    -271.612
  H     -597.611      94.406    -280.705
  P     -595.764      96.315    -280.998
  C     -594.123      96.744    -279.050
  O     -594.387      96.937    -280.434
  O     -595.857      96.925    -282.470
  O     -595.889      94.820    -280.879
  H     -595.902      97.900    -282.465
  H     -593.152      97.187    -278.825
  H     -594.089      95.673    -278.812
  H     -594.908      97.236    -278.447
  H     -596.068      90.773    -282.069
  H     -597.697      91.137    -281.553
  H     -596.781      89.893    -280.738

 3  4  5  6  7  8  9  10  11  12  22  25  29  30  31  32 0
 6-311+G(2d,p)
 ****
 33  36  37 0
 6-311+G(2d,p)
 ****
 1  2  13  14  15  16  17  18  19  20  21  23  24  26 0
 3-21G
 ****
 27  28  34  35  38  39  40  41  42  43  44  45  46  47  48 0
 3-21G
 ****


