%nproc=1
%NoSave
%Mem=1900MB
#P OB98/GEN NMR

erre ene a

0 1
  C     -213.894    -111.170    -266.417
  O     -213.585    -111.435    -267.787
  P     -212.806    -112.789    -268.144
  C     -211.153    -111.664    -269.784
  O     -212.179    -112.644    -269.626
  C     -210.793    -111.503    -271.273
  O     -211.912    -110.844    -271.943
  C     -209.573    -110.619    -271.554
  O     -208.285    -111.242    -271.598
  C     -209.867    -110.135    -272.965
  O     -209.452    -111.125    -273.920
  C     -211.386    -110.004    -272.993
  N     -211.157    -105.210    -274.809
  C     -210.610    -106.368    -275.237
  N     -210.717    -107.603    -274.693
  C     -211.503    -107.577    -273.610
  C     -212.145    -106.477    -273.063
  C     -211.944    -105.242    -273.701
  N     -212.508    -104.065    -273.265
  N     -212.870    -106.840    -271.933
  C     -212.641    -108.130    -271.802
  N     -211.850    -108.632    -272.794
  O     -213.550    -114.056    -267.890
  O     -211.503    -112.692    -267.215
  H     -208.503    -111.305    -273.745
  H     -211.282    -113.588    -266.889
  H     -209.989    -106.290    -276.129
  H     -213.045    -108.749    -271.002
  H     -211.828    -110.347    -273.937
  H     -209.320    -109.212    -273.216
  H     -209.539    -109.762    -270.861
  H     -210.662    -112.485    -271.727
  H     -210.261    -111.982    -269.230
  H     -212.283    -103.216    -273.759
  H     -213.043    -104.057    -272.412
  H     -211.501    -110.737    -269.326
  P     -206.975    -110.491    -271.071
  C     -205.426    -111.260    -273.025
  O     -205.729    -111.319    -271.663
  O     -206.925    -110.252    -269.603
  O     -206.957    -109.156    -271.956
  H     -206.786    -109.305    -272.902
  H     -204.438    -111.708    -273.196
  H     -205.386    -110.218    -273.377
  H     -206.169    -111.830    -273.600
  H     -214.411    -110.236    -266.342
  H     -212.988    -111.123    -265.850
  H     -214.515    -111.953    -266.033

 3  4  5  6  7  8  9  10  11  12  22  25  29  30  31  32 0
 6-311+G(2d,p)
 ****
 33  36  37 0
 6-311+G(2d,p)
 ****
 1  2  13  14  15  16  17  18  19  20  21  23  24  26 0
 3-21G
 ****
 27  28  34  35  38  39  40  41  42  43  44  45  46  47  48 0
 3-21G
 ****


