%nproc=1
%NoSave
%Mem=1900MB
#P OB98/GEN NMR

erre ene a

0 1
  C     -113.113       0.169      78.120
  O     -112.623       1.029      77.109
  H     -114.061      -0.259      77.780
  H     -113.296       0.736      79.035
  H     -112.409      -0.643      78.315
  P     -111.172       1.685      77.285
  C     -109.767      -0.472      77.079
  O     -110.131       0.764      76.478
  C     -108.986      -1.346      76.092
  O     -109.792      -1.536      74.902
  C     -107.646      -0.741      75.660
  O     -106.684      -1.787      75.518
  C     -107.954      -0.137      74.303
  O     -106.797      -0.047      73.475
  C     -109.017      -1.094      73.767
  N     -109.317       0.432      68.958
  C     -108.328      -0.276      69.607
  N     -107.243      -0.614      68.875
  N     -108.387      -0.620      70.867
  C     -109.539      -0.236      71.473
  C     -110.596       0.468      70.939
  C     -110.503       0.861      69.549
  O     -111.344       1.502      68.923
  N     -111.576       0.683      71.878
  C     -111.112       0.112      72.975
  N     -109.875      -0.448      72.784
  O     -110.779       1.977      78.700
  O     -111.232       3.019      76.406
  H     -106.260       0.703      73.814
  H     -111.307       3.809      76.973
  H     -109.216       0.682      67.990
  H     -111.623       0.081      73.926
  H     -108.581      -1.974      73.280
  H     -108.362       0.874      74.431
  H     -107.139      -0.401      67.893
  H     -107.278       0.001      76.370
  H     -106.514      -1.159      69.318
  H     -108.843      -2.337      76.542
  H     -110.684      -0.989      77.384
  H     -109.159      -0.275      77.970
  P     -105.244      -1.622      76.209
  C     -105.721      -2.575      78.549
  O     -105.061      -2.781      77.307
  O     -104.918      -0.245      76.688
  O     -104.237      -2.078      75.046
  H     -103.419      -1.546      75.111
  H     -105.529      -3.405      79.197
  H     -106.774      -2.488      78.383
  H     -105.356      -1.677      79.002

 6  7  8  9  10  11  12  13  14  15  26  29  33  34 0
 6-311+G(2d,p)
 ****
 36  38  39  40  41 0
 6-311+G(2d,p)
 ****
 1  2  3  4  5  16  17  18  19  20  21  22  23  24  25 0
 3-21G
 ****
 27  28  30  31  32  35  37  42  43  44  45  46  47 0
 3-21G
 ****
 48  49 0
 3-21G
 ****


