%nproc=1
%NoSave
%Mem=1900MB
#P OB98/GEN NMR

erre ene a

0 1
  C       67.917     468.830     524.174
  O       67.722     470.045     523.454
  P       66.218     470.600     523.363
  C       66.623     472.813     524.667
  O       65.967     471.548     524.641
  C       66.866     473.262     526.116
  O       67.542     472.261     526.903
  C       67.718     474.516     526.222
  O       66.929     475.670     525.954
  C       68.204     474.433     527.667
  O       67.236     474.984     528.570
  C       68.357     472.924     527.901
  N       71.888     470.034     530.123
  C       70.653     470.444     530.589
  N       70.292     469.986     531.815
  N       69.848     471.218     529.913
  C       70.327     471.586     528.706
  C       71.531     471.231     528.133
  C       72.420     470.369     528.886
  O       73.516     469.971     528.515
  N       71.654     471.757     526.863
  C       70.590     472.534     526.740
  N       69.725     472.415     527.796
  O       65.326     469.300     523.674
  O       65.882     471.202     522.042
  H       67.165     475.943     528.418
  H       64.867     469.018     522.862
  H       72.474     469.457     530.681
  H       70.390     473.168     525.888
  H       67.996     472.611     528.878
  H       69.119     475.011     527.820
  H       70.865     469.394     532.388
  H       68.573     474.459     525.536
  H       69.374     470.276     532.165
  H       65.876     473.447     526.574
  H       66.027     473.564     524.153
  H       67.575     472.738     524.136
  P       66.763     476.126     524.438
  C       64.237     475.524     524.490
  O       65.498     475.357     523.845
  O       68.009     475.433     523.706
  O       66.772     477.608     524.215
  H       68.424     476.072     523.082
  H       63.445     475.399     523.728
  H       64.143     476.503     524.949
  H       64.124     474.738     525.245
  H       68.955     468.570     524.161
  H       67.348     468.049     523.716
  H       67.595     468.960     525.186

 3  4  5  6  7  8  9  10  11  12  23  26  30  31 0
 6-311+G(2d,p)
 ****
 33  35  36  37  38 0
 6-311+G(2d,p)
 ****
 1  2  13  14  15  16  17  18  19  20  21  22  24  25 0
 3-21G
 ****
 27  28  29  32  34  39  40  41  42  43  44  45  46  47  48  49 0
 3-21G
 ****


