%nproc=1
%NoSave
%Mem=1900MB
#P OB98/GEN NMR

erre ene a

0 1
  C      145.919     284.875     401.479
  O      144.599     285.235     401.847
  P      144.274     286.286     403.008
  C      141.756     286.264     402.346
  O      142.715     286.139     403.390
  C      140.311     286.166     402.845
  O      140.064     287.219     403.805
  C      139.337     286.401     401.688
  O      138.990     285.336     400.822
  C      138.155     287.137     402.310
  O      137.060     286.266     402.609
  C      138.737     287.732     403.591
  N      136.090     292.053     403.477
  C      135.654     290.774     403.758
  N      134.310     290.613     403.826
  N      136.453     289.753     403.929
  C      137.761     290.063     403.730
  C      138.311     291.288     403.464
  C      137.415     292.416     403.317
  O      137.758     293.549     402.988
  N      139.669     291.209     403.252
  C      139.935     289.923     403.350
  N      138.798     289.181     403.598
  O      144.853     287.653     402.860
  O      145.003     285.590     404.274
  H      136.389     286.777     403.097
  H      145.338     286.305     404.844
  H      135.417     292.783     403.280
  H      140.909     289.472     403.219
  H      138.139     287.433     404.463
  H      137.761     287.887     401.615
  H      133.668     291.333     403.559
  H      139.805     287.136     401.026
  H      133.953     289.661     403.863
  H      140.139     285.228     403.384
  H      141.969     285.480     401.612
  H      141.899     287.226     401.840
  P      138.274     285.467     399.397
  C      139.388     283.308     398.602
  O      138.168     284.002     398.756
  O      139.355     286.193     398.471
  O      136.992     286.242     399.408
  H      138.910     286.623     397.718
  H      139.252     282.489     397.890
  H      139.701     282.897     399.565
  H      140.178     283.974     398.226
  H      145.885     284.160     400.683
  H      146.420     284.447     402.322
  H      146.449     285.746     401.154

 3  4  5  6  7  8  9  10  11  12  23  26  30  31 0
 6-311+G(2d,p)
 ****
 33  35  36  37  38 0
 6-311+G(2d,p)
 ****
 1  2  13  14  15  16  17  18  19  20  21  22  24  25 0
 3-21G
 ****
 27  28  29  32  34  39  40  41  42  43  44  45  46  47  48  49 0
 3-21G
 ****


