%nproc=1
%NoSave
%Mem=1900MB
#P OB98/GEN NMR

erre ene a

0 1
  C     -128.061    -131.456    -139.642
  O     -127.700    -132.815    -139.394
  P     -128.834    -133.948    -139.466
  C     -127.407    -136.079    -139.626
  O     -128.261    -135.295    -138.805
  C     -125.923    -135.855    -139.308
  O     -125.648    -136.115    -137.906
  C     -124.963    -136.730    -140.128
  O     -123.796    -135.942    -140.387
  C     -124.648    -137.857    -139.164
  O     -123.474    -138.567    -139.524
  C     -124.579    -137.079    -137.846
  N     -124.696    -137.943    -136.682
  C     -123.634    -138.809    -136.420
  O     -122.698    -138.894    -137.215
  N     -123.677    -139.575    -135.280
  C     -124.753    -139.584    -134.557
  N     -124.750    -140.340    -133.425
  C     -125.965    -138.818    -134.905
  C     -125.857    -138.009    -135.954
  O     -129.478    -134.126    -140.800
  O     -129.901    -133.450    -138.376
  H     -123.376    -139.342    -138.931
  H     -130.799    -133.688    -138.683
  H     -126.866    -138.921    -134.318
  H     -126.686    -137.402    -136.286
  H     -123.638    -136.520    -137.773
  H     -125.482    -138.569    -139.146
  H     -125.386    -137.066    -141.080
  H     -125.696    -134.797    -139.491
  H     -123.921    -140.880    -133.212
  H     -127.591    -135.829    -140.674
  H     -125.531    -140.360    -132.782
  H     -127.677    -137.136    -139.515
  P     -123.703    -135.119    -141.762
  C     -121.941    -133.400    -140.932
  O     -122.255    -134.438    -141.834
  O     -124.648    -133.857    -141.450
  O     -124.184    -135.827    -142.987
  H     -124.987    -133.501    -142.293
  H     -120.856    -133.255    -140.929
  H     -122.258    -133.646    -139.915
  H     -122.419    -132.471    -141.252
  H     -127.194    -130.835    -139.555
  H     -128.795    -131.146    -138.928
  H     -128.465    -131.369    -140.629

 3  4  5  6  7  8  9  10  11  12  13  23  27  28  29  30  32 0
 6-311+G(2d,p)
 ****
 34  35 0
 6-311+G(2d,p)
 ****
 1  2  14  15  16  17  18  19  20  21  22  24  25  26 0
 3-21G
 ****
 31  33  36  37  38  39  40  41  42  43  44  45  46 0
 3-21G
 ****


