%nproc=1
%NoSave
%Mem=1900MB
#P OB98/GEN NMR

erre ene a

0 1
  C      146.287     404.478     -47.290
  O      144.988     404.942     -47.627
  P      144.325     406.058     -46.684
  C      144.737     407.735     -48.610
  O      144.856     407.480     -47.220
  C      143.357     408.297     -48.945
  O      143.077     409.415     -48.061
  C      143.213     408.802     -50.390
  O      141.948     408.367     -50.916
  C      143.152     410.311     -50.231
  O      142.466     410.933     -51.311
  C      142.451     410.423     -48.879
  N      140.268     414.965     -48.503
  C      139.774     413.785     -49.027
  N      138.541     413.846     -49.579
  N      140.424     412.654     -49.014
  C      141.628     412.732     -48.403
  C      142.225     413.837     -47.836
  C      141.519     415.100     -47.913
  O      141.943     416.192     -47.548
  N      143.449     413.522     -47.295
  C      143.591     412.234     -47.536
  N      142.536     411.720     -48.247
  O      145.100     405.859     -45.297
  O      142.851     405.945     -46.504
  H      142.419     411.887     -51.110
  H      144.456     405.700     -44.581
  H      139.733     415.811     -48.554
  H      144.451     411.643     -47.245
  H      141.386     410.168     -48.980
  H      144.174     410.709     -50.191
  H      137.967     414.677     -49.590
  H      144.020     408.485     -51.056
  H      138.149     412.991     -49.948
  H      142.606     407.525     -48.729
  H      144.889     406.804     -49.165
  H      145.512     408.450     -48.907
  P      141.791     408.445     -52.513
  C      141.677     405.869     -52.903
  O      142.399     407.077     -53.076
  O      142.872     409.547     -52.939
  O      140.411     408.782     -52.968
  H      142.620     409.958     -53.789
  H      140.665     406.050     -52.531
  H      142.210     405.233     -52.197
  H      141.609     405.357     -53.869
  H      146.599     403.742     -48.001
  H      146.268     404.043     -46.312
  H      146.973     405.299     -47.302

 3  4  5  6  7  8  9  10  11  12  23  26  30  31  33  0
 6-311+G(2d,p)
 ****
 35  36  37  38 0
 6-311+G(2d,p)
 ****
 1  2  13  14  15  16  17  18  19  20  21  22  24  25  27  28  29 0
 3-21G
 ****
 32  34  39  40  41  42  43  44  45  46  47  48  49 0
 3-21G
 ****


