%nproc=1
%NoSave
%Mem=1900MB
#P OB98/GEN NMR

erre ene a

0 1
  C       24.002     -14.424       7.502
  O       24.340     -14.970       8.760
  H       24.014     -13.332       7.548
  H       24.740     -14.752       6.764
  H       23.013     -14.772       7.192
  P       23.395     -14.576       9.996
  C       24.484     -12.216      10.123
  O       24.198     -13.436      10.793
  C       25.259     -11.298      11.061
  O       25.605     -10.070      10.379
  C       24.474     -10.877      12.298
  O       24.506     -11.856      13.321
  C       25.237      -9.628      12.705
  O       26.466      -9.999      13.354
  C       25.526      -8.983      11.341
  N       24.093      -4.069      11.299
  C       25.208      -4.680      11.756
  N       25.523      -5.990      11.711
  C       24.550      -6.692      11.109
  C       23.362      -6.207      10.587
  C       23.142      -4.825      10.703
  N       21.994      -4.203      10.267
  N       22.604      -7.238      10.067
  C       23.332      -8.320      10.256
  N       24.502      -8.046      10.912
  O       23.500     -15.839      10.974
  O       21.989     -14.216       9.653
  H       26.925      -9.170      13.590
  H       22.795     -15.807      11.648
  H       25.942      -4.030      12.224
  H       23.053      -9.320       9.950
  H       26.483      -8.450      11.321
  H       24.679      -9.003      13.407
  H       23.445     -10.600      12.045
  H       26.195     -11.798      11.339
  H       23.542     -11.739       9.835
  H       21.865      -3.238      10.527
  H       21.221      -4.773       9.958
  H       25.073     -12.423       9.225
  P       23.104     -12.294      13.972
  C       23.405     -10.417      15.742
  O       23.135     -11.792      15.496
  O       23.250     -13.881      14.103
  O       21.901     -11.899      13.180
  H       22.386     -14.320      13.997
  H       23.393     -10.234      16.796
  H       22.658      -9.816      15.267
  H       24.368     -10.166      15.348

 6  7  8  9  10  11  12  13  14  15  25  28  32  33  34  35 0
 6-311+G(2d,p)
 ****
 36  39  40 0
 6-311+G(2d,p)
 ****
 1  2  3  4  5  16  17  18  19  20  21  22  23  24 0
 3-21G
 ****
 26  27  29  30  31  37  38  41  42  43  44  45  46  47 0
 3-21G
 ****
 48 0
 3-21G
 ****


