%nproc=1
%NoSave
%Mem=1900MB
#P OB98/GEN NMR

erre ene a

0 1
  C     -134.003     204.325     333.484
  O     -132.773     204.404     334.180
  H     -134.203     205.293     333.018
  H     -134.823     204.088     334.167
  H     -133.941     203.565     332.701
  P     -132.392     203.206     335.177
  C     -131.578     205.157     336.656
  O     -131.323     203.829     336.204
  C     -131.121     205.350     338.102
  O     -131.278     206.725     338.507
  C     -131.920     204.549     339.120
  O     -131.767     203.152     339.029
  C     -131.571     205.256     340.419
  O     -130.329     204.812     340.960
  C     -131.447     206.728     339.944
  N     -132.585     207.538     340.353
  C     -132.746     207.720     341.720
  O     -132.003     207.217     342.564
  N     -133.821     208.477     342.101
  C     -134.755     209.017     341.264
  O     -135.709     209.669     341.671
  C     -134.558     208.760     339.831
  C     -133.495     208.045     339.445
  O     -131.932     201.937     334.519
  O     -133.699     203.025     336.081
  H     -129.645     204.980     340.284
  H     -133.684     202.165     336.566
  H     -133.948     208.630     343.090
  H     -135.282     209.161     339.139
  H     -133.324     207.844     338.388
  H     -130.536     207.184     340.360
  H     -132.331     205.107     341.188
  H     -132.991     204.740     338.941
  H     -130.051     205.105     338.155
  H     -132.660     205.328     336.593
  H     -131.070     205.869     335.997
  P     -132.961     202.112     339.209
  C     -131.560     201.012     341.122
  O     -132.403     200.826     339.996
  O     -133.837     201.881     338.023
  O     -133.856     202.836     340.344
  H     -134.791     202.621     340.153
  H     -131.283     200.059     341.522
  H     -132.081     201.574     341.869
  H     -130.680     201.543     340.825

 6  7  8  9  10  11  12  13  14  15  16  26  31  32  33  34  35 0
 6-311+G(2d,p)
 ****
 36  37 0
 6-311+G(2d,p)
 ****
 1  2  3  4  5  17  18  19  20  21  22  23  24  25 0
 3-21G
 ****
 27  28  29  30  38  39  40  41  42  43  44  45 0
 3-21G
 ****


