%nproc=1
%NoSave
%Mem=1900MB
#P OB98/GEN NMR

erre ene a

0 1
  C      307.296     388.573      63.525
  O      306.030     387.912      63.397
  P      305.009     388.267      62.206
  C      304.459     390.426      63.484
  O      304.669     389.841      62.205
  C      303.341     391.473      63.499
  O      303.705     392.637      62.701
  C      301.989     390.987      62.950
  O      300.988     391.716      63.674
  C      302.040     391.438      61.508
  O      300.764     391.493      60.881
  C      302.721     392.792      61.664
  N      302.296     396.015      57.696
  C      301.619     395.926      58.860
  N      301.811     395.061      59.879
  C      302.856     394.261      59.641
  C      303.655     394.239      58.505
  C      303.336     395.162      57.491
  N      303.996     395.226      56.284
  N      304.619     393.247      58.599
  C      304.395     392.680      59.765
  N      303.345     393.257      60.434
  O      303.804     387.383      62.156
  O      305.878     388.079      60.874
  H      300.294     392.280      61.220
  H      305.356     387.574      60.220
  H      300.803     396.633      58.981
  H      304.943     391.836      60.165
  H      302.011     393.561      61.988
  H      302.660     390.733      60.931
  H      301.841     389.907      63.060
  H      303.224     391.828      64.530
  H      305.396     390.895      63.813
  H      303.631     395.854      55.585
  H      304.677     394.520      56.062
  H      304.220     389.626      64.199
  P      300.482     391.251      65.119
  C      298.229     390.421      64.237
  O      299.439     390.059      64.886
  O      299.989     392.359      65.998
  O      301.747     390.513      65.772
  H      301.642     390.466      66.736
  H      297.569     390.935      64.944
  H      297.729     389.507      63.880
  H      298.425     391.068      63.382
  H      307.814     388.189      64.379
  H      307.139     389.624      63.646
  H      307.880     388.399      62.645

 3  4  5  6  7  8  9  10  11  12  22  25  29  30  31  32 0
 6-311+G(2d,p)
 ****
 33  36  37 0
 6-311+G(2d,p)
 ****
 1  2  13  14  15  16  17  18  19  20  21  23  24  26 0
 3-21G
 ****
 27  28  34  35  38  39  40  41  42  43  44  45  46  47  48 0
 3-21G
 ****


