%nproc=1
%NoSave
%Mem=1900MB
#P OB98/GEN NMR

erre ene a

0 1
  C     -168.688     -59.129      75.564
  O     -168.738     -58.428      74.328
  P     -169.313     -59.139      73.010
  C     -171.327     -57.567      72.703
  O     -170.077     -58.000      72.173
  C     -172.049     -56.659      71.707
  O     -171.244     -55.474      71.485
  C     -172.288     -57.315      70.351
  O     -173.545     -56.869      69.834
  C     -171.187     -56.755      69.465
  O     -171.575     -56.768      68.079
  C     -170.991     -55.360      70.069
  N     -168.138     -51.468      68.307
  C     -169.475     -51.641      68.378
  N     -170.163     -52.709      68.837
  C     -169.326     -53.650      69.298
  C     -167.939     -53.615      69.300
  C     -167.336     -52.461      68.769
  N     -165.970     -52.280      68.708
  N     -167.418     -54.780      69.831
  C     -168.473     -55.492      70.167
  N     -169.645     -54.850      69.876
  O     -170.114     -60.373      73.254
  O     -168.020     -59.436      72.118
  H     -170.828     -56.395      67.568
  H     -168.109     -60.297      71.664
  H     -170.075     -50.806      68.016
  H     -168.442     -56.479      70.611
  H     -171.702     -54.634      69.655
  H     -170.283     -57.366      69.569
  H     -172.267     -58.410      70.396
  H     -172.999     -56.333      72.156
  H     -171.134     -57.011      73.625
  H     -165.632     -51.372      68.423
  H     -165.383     -52.938      69.204
  H     -171.941     -58.441      72.951
  P     -174.594     -58.027      69.438
  C     -176.765     -56.607      69.650
  O     -175.840     -57.246      68.800
  O     -174.878     -58.945      70.586
  O     -173.846     -58.713      68.196
  H     -173.226     -58.084      67.757
  H     -177.559     -56.167      69.033
  H     -176.275     -55.804      70.205
  H     -177.212     -57.325      70.344
  H     -168.276     -58.492      76.319
  H     -168.073     -59.998      75.457
  H     -169.677     -59.424      75.847

 3  4  5  6  7  8  9  10  11  12  22  25  29  30  31  32 0
 6-311+G(2d,p)
 ****
 33  36  37 0
 6-311+G(2d,p)
 ****
 1  2  13  14  15  16  17  18  19  20  21  23  24  26 0
 3-21G
 ****
 27  28  34  35  38  39  40  41  42  43  44  45  46  47  48 0
 3-21G
 ****


