%nproc=1
%NoSave
%Mem=1900MB
#P OB98/GEN NMR

erre ene a

0 1
  C       88.906     -21.979      -4.761
  O       88.322     -22.432      -3.552
  P       89.165     -23.465      -2.657
  C       90.588     -21.655      -1.447
  O       90.569     -22.754      -2.348
  C       91.619     -21.892      -0.348
  O       91.474     -23.213       0.213
  C       93.064     -21.815      -0.821
  O       93.530     -20.480      -0.920
  C       93.779     -22.544       0.305
  O       93.958     -21.660       1.428
  C       92.781     -23.656       0.653
  N       95.524     -27.888       1.038
  C       95.293     -26.898       1.972
  N       95.932     -27.026       3.154
  N       94.505     -25.876       1.768
  C       93.939     -25.875       0.534
  C       94.090     -26.800      -0.473
  C       94.974     -27.920      -0.236
  O       95.260     -28.799      -1.041
  N       93.349     -26.464      -1.574
  C       92.749     -25.339      -1.238
  N       93.109     -24.918       0.016
  O       89.558     -24.617      -3.695
  O       88.436     -24.000      -1.472
  H       94.375     -22.190       2.136
  H       89.833     -25.421      -3.214
  H       96.145     -28.654       1.242
  H       92.065     -24.789      -1.871
  H       92.721     -23.828       1.732
  H       94.774     -22.899       0.019
  H       96.601     -27.757       3.351
  H       93.207     -22.366      -1.759
  H       95.831     -26.283       3.834
  H       91.436     -21.162       0.452
  H       89.598     -21.537      -1.002
  H       90.828     -20.741      -2.000
  P       94.787     -20.223      -1.887
  C       93.462     -20.037      -4.114
  O       94.348     -20.797      -3.316
  O       95.867     -21.279      -1.361
  O       95.304     -18.824      -1.868
  H       96.770     -20.969      -1.560
  H       93.483     -20.432      -5.134
  H       93.761     -18.986      -4.140
  H       92.444     -20.122      -3.724
  H       88.237     -21.301      -5.248
  H       89.095     -22.815      -5.401
  H       89.827     -21.478      -4.547

 3  4  5  6  7  8  9  10  11  12  23  26  30  31 0
 6-311+G(2d,p)
 ****
 33  35  36  37  38 0
 6-311+G(2d,p)
 ****
 1  2  13  14  15  16  17  18  19  20  21  22  24  25 0
 3-21G
 ****
 27  28  29  32  34  39  40  41  42  43  44  45  46  47  48  49 0
 3-21G
 ****


