%nproc=1
%NoSave
%Mem=1900MB
#P OB98/GEN NMR

erre ene a

0 1
  C     -962.873    -687.999    -899.000
  O     -963.971    -687.156    -898.660
  H     -962.078    -687.907    -898.260
  H     -963.202    -689.036    -899.030
  H     -962.483    -687.731    -900.000
  P     -963.677    -685.594    -898.580
  C     -962.701    -684.026    -896.760
  O     -962.911    -685.350    -897.190
  C     -963.131    -683.880    -895.300
  O     -962.324    -684.737    -894.440
  C     -962.984    -682.472    -894.730
  O     -964.068    -681.630    -895.090
  C     -962.985    -682.765    -893.220
  O     -964.345    -683.029    -892.800
  C     -962.163    -684.054    -893.170
  N     -958.129    -685.332    -890.280
  C     -959.423    -685.728    -890.250
  N     -960.447    -685.360    -891.050
  C     -960.010    -684.429    -891.940
  C     -958.696    -683.943    -892.110
  C     -957.749    -684.440    -891.210
  N     -956.438    -684.029    -891.220
  N     -958.662    -683.009    -893.120
  C     -959.897    -682.988    -893.600
  N     -960.755    -683.828    -892.940
  O     -965.119    -684.960    -898.300
  O     -963.017    -684.986    -899.770
  H     -964.288    -683.403    -891.900
  H     -965.132    -684.015    -898.550
  H     -959.680    -686.468    -889.490
  H     -960.201    -682.365    -894.440
  H     -962.524    -684.753    -892.380
  H     -962.608    -681.969    -892.630
  H     -961.992    -682.030    -895.000
  H     -964.191    -684.215    -895.210
  H     -963.297    -683.334    -897.360
  H     -955.880    -684.291    -890.410
  H     -956.175    -683.243    -891.830
  H     -961.630    -683.757    -896.860
  P     -963.689    -680.242    -895.800
  C     -962.360    -678.089    -895.070
  O     -962.854    -679.404    -894.700
  O     -965.094    -679.464    -895.870
  O     -963.047    -680.363    -897.150
  H     -965.134    -678.823    -896.600
  H     -961.831    -677.661    -894.244
  H     -963.184    -677.459    -895.330
  H     -961.701    -678.178    -895.908

 6  7  8  9  10  11  12  13  14  15  25  28  32  33  34  35 0
 6-311+G(2d,p)
 ****
 36  39  40 0
 6-311+G(2d,p)
 ****
 1  2  3  4  5  16  17  18  19  20  21  22  23  24 0
 3-21G
 ****
 26  27  29  30  31  37  38  41  42  43  44  45  46  47 0
 3-21G
 ****
 48 0
 3-21G
 ****


