%nproc=1
%NoSave
%Mem=1900MB
#P OB98/GEN NMR

erre ene a

0 1
  C       18.494     635.891      53.207
  O       17.792     636.909      53.942
  P       17.841     636.789      55.546
  C       15.804     637.361      57.071
  O       16.775     637.823      56.139
  C       14.762     638.454      57.330
  O       15.333     639.592      58.021
  C       14.150     639.020      56.057
  O       13.212     638.112      55.490
  C       13.533     640.310      56.575
  O       12.278     640.046      57.242
  C       14.566     640.764      57.618
  N       17.899     644.414      58.965
  C       17.150     643.563      59.699
  N       16.270     642.638      59.265
  C       16.250     642.591      57.925
  C       16.968     643.376      57.032
  C       17.827     644.335      57.617
  N       18.604     645.200      56.857
  N       16.689     643.051      55.728
  C       15.777     642.093      55.819
  N       15.493     641.776      57.109
  O       19.264     637.420      55.926
  O       17.700     635.386      56.046
  H       11.656     639.720      56.557
  H       19.873     636.705      56.215
  H       17.222     643.664      60.779
  H       15.312     641.600      54.975
  H       14.100     641.174      58.520
  H       13.332     641.044      55.800
  H       14.932     639.246      55.315
  H       13.980     638.012      57.966
  H       16.295     637.091      58.022
  H       19.137     645.909      57.351
  H       18.492     645.222      55.856
  H       15.344     636.465      56.669
  P       13.591     637.439      54.081
  C       11.342     637.379      52.812
  O       12.221     636.679      53.656
  O       14.547     636.253      54.525
  O       14.131     638.383      53.049
  H       14.177     635.759      55.289
  H       10.490     636.735      52.581
  H       11.844     637.635      51.875
  H       10.986     638.285      53.306
  H       18.391     636.074      52.158
  H       18.082     634.932      53.444
  H       19.530     635.910      53.473

 3  4  5  6  7  8  9  10  11  12  22  25  29  30  31  32 0
 6-311+G(2d,p)
 ****
 33  36  37 0
 6-311+G(2d,p)
 ****
 1  2  13  14  15  16  17  18  19  20  21  23  24  26 0
 3-21G
 ****
 27  28  34  35  38  39  40  41  42  43  44  45  46  47  48 0
 3-21G
 ****


