%nproc=1
%NoSave
%Mem=1900MB
#P OB98/GEN NMR

erre ene a

0 1
  C      214.768    -381.499    -335.413
  O      215.527    -382.699    -335.430
  P      216.030    -383.278    -334.016
  C      215.990    -385.713    -334.913
  O      216.754    -384.678    -334.316
  C      216.744    -387.045    -334.871
  O      217.946    -386.929    -335.685
  C      217.185    -387.487    -333.464
  O      217.106    -388.912    -333.433
  C      218.628    -387.013    -333.421
  O      219.402    -387.615    -332.394
  C      219.056    -387.329    -334.850
  N      224.111    -387.770    -335.534
  C      223.163    -388.678    -335.204
  N      221.837    -388.488    -335.045
  C      221.513    -387.206    -335.282
  C      222.365    -386.167    -335.605
  C      223.729    -386.486    -335.733
  N      224.695    -385.557    -336.062
  N      221.673    -384.981    -335.743
  C      220.416    -385.298    -335.497
  N      220.264    -386.632    -335.238
  O      214.667    -383.713    -333.298
  O      216.819    -382.316    -333.184
  H      219.157    -387.240    -331.525
  H      214.693    -383.514    -332.345
  H      223.518    -389.695    -335.038
  H      219.587    -384.603    -335.489
  H      219.227    -388.400    -335.004
  H      218.647    -385.936    -333.238
  H      216.559    -387.073    -332.666
  H      216.113    -387.817    -335.330
  H      215.797    -385.465    -335.961
  H      225.652    -385.840    -335.932
  H      224.429    -384.580    -336.007
  H      215.023    -385.797    -334.402
  P      216.351    -389.622    -332.205
  C      215.522    -391.308    -333.965
  O      216.141    -391.138    -332.701
  O      214.869    -389.025    -332.372
  O      216.955    -389.420    -330.861
  H      214.540    -389.123    -333.283
  H      215.539    -392.373    -334.219
  H      216.070    -390.753    -334.734
  H      214.486    -390.968    -333.923
  H      214.502    -381.231    -336.414
  H      215.351    -380.715    -334.977
  H      213.880    -381.647    -334.835

 3  4  5  6  7  8  9  10  11  12  22  25  29  30  31  32 0
 6-311+G(2d,p)
 ****
 33  36  37 0
 6-311+G(2d,p)
 ****
 1  2  13  14  15  16  17  18  19  20  21  23  24  26 0
 3-21G
 ****
 27  28  34  35  38  39  40  41  42  43  44  45  46  47  48 0
 3-21G
 ****


