%nproc=1
%NoSave
%Mem=1900MB
#P OB98/GEN NMR

erre ene a

0 1
  C      632.375    -574.761     205.200
  O      633.688    -574.722     205.703
  H      632.338    -575.451     204.357
  H      632.086    -573.767     204.828
  H      631.673    -575.088     205.950
  P      634.018    -573.744     206.923
  C      635.394    -575.524     208.204
  O      634.205    -574.706     208.202
  C      635.122    -576.914     207.685
  O      634.767    -576.848     206.296
  C      636.344    -577.863     207.814
  O      635.904    -579.109     208.354
  C      636.765    -578.053     206.366
  O      637.486    -579.259     206.170
  C      635.422    -577.935     205.639
  N      635.614    -577.709     204.214
  C      635.829    -578.859     203.445
  O      635.840    -579.991     203.965
  N      636.039    -578.721     202.098
  C      636.103    -577.543     201.599
  N      636.339    -577.465     200.230
  C      635.907    -576.328     202.346
  C      635.675    -576.459     203.652
  O      633.064    -572.616     207.118
  O      635.523    -573.240     206.650
  H      636.892    -580.032     206.375
  H      635.678    -572.397     207.144
  H      635.984    -575.324     201.883
  H      635.500    -575.587     204.323
  H      634.810    -578.854     205.789
  H      637.433    -577.228     206.073
  H      637.156    -577.458     208.432
  H      634.265    -577.326     208.232
  H      636.467    -578.361     199.752
  H      635.786    -575.539     209.260
  H      636.452    -576.605     199.720
  H      636.133    -575.013     207.590
  P      636.131    -579.294     209.945
  C      634.129    -580.910     210.368
  O      634.714    -579.634     210.619
  O      636.490    -577.824     210.449
  O      637.225    -580.271     210.269
  H      637.431    -577.781     210.714
  H      633.194    -580.982     210.884
  H      634.788    -581.679     210.715
  H      633.966    -581.027     209.317

 6  7  8  9  10  11  12  13  14  15  16  26  30  31  32  33  35 0
 6-311+G(2d,p)
 ****
 37  38 0
 6-311+G(2d,p)
 ****
 1  2  3  4  5  17  18  19  20  21  22  23  24  25 0
 3-21G
 ****
 27  28  29  34  36  39  40  41  42  43  44  45  46 0
 3-21G
 ****


