%nproc=1
%NoSave
%Mem=1900MB
#P OB98/GEN NMR

erre ene a

0 1
  C     -490.521    -941.625    -236.134
  O     -489.827    -942.755    -235.608
  P     -490.590    -944.012    -234.971
  C     -490.053    -943.231    -232.573
  O     -491.073    -943.623    -233.488
  C     -490.644    -942.769    -231.236
  O     -491.517    -943.766    -230.686
  C     -489.602    -942.449    -230.159
  O     -489.013    -941.181    -230.389
  C     -490.453    -942.561    -228.903
  O     -491.192    -941.342    -228.685
  C     -491.406    -943.709    -229.251
  N     -491.744    -946.948    -225.302
  C     -492.334    -945.770    -225.545
  N     -492.191    -944.952    -226.628
  C     -491.352    -945.504    -227.517
  C     -490.671    -946.717    -227.409
  C     -490.899    -947.454    -226.229
  N     -490.279    -948.653    -225.968
  N     -489.883    -946.931    -228.510
  C     -490.086    -945.890    -229.289
  N     -490.969    -944.996    -228.723
  O     -489.835    -945.303    -235.054
  O     -491.965    -944.109    -235.801
  H     -490.545    -940.621    -228.605
  H     -492.279    -945.038    -235.808
  H     -493.022    -945.404    -224.778
  H     -489.626    -945.733    -230.255
  H     -492.416    -943.534    -228.864
  H     -489.846    -942.740    -228.007
  H     -488.839    -943.236    -230.154
  H     -491.259    -941.878    -231.445
  H     -489.478    -942.413    -233.034
  H     -490.474    -949.112    -225.096
  H     -489.603    -949.019    -226.637
  H     -489.385    -944.081    -232.409
  P     -487.646    -941.069    -231.214
  C     -486.171    -941.360    -229.141
  O     -486.533    -941.883    -230.412
  O     -487.264    -939.687    -231.631
  O     -487.912    -941.997    -232.490
  H     -487.398    -941.671    -233.254
  H     -485.485    -940.527    -229.277
  H     -485.689    -942.157    -228.557
  H     -487.066    -941.023    -228.589
  H     -489.814    -940.913    -236.504
  H     -491.108    -941.176    -235.361
  H     -491.161    -941.939    -236.931

 3  4  5  6  7  8  9  10  11  12  22  25  29  30  31  32 0
 6-311+G(2d,p)
 ****
 33  36  37 0
 6-311+G(2d,p)
 ****
 1  2  13  14  15  16  17  18  19  20  21  23  24  26 0
 3-21G
 ****
 27  28  34  35  38  39  40  41  42  43  44  45  46  47  48 0
 3-21G
 ****


