%nproc=1
%NoSave
%Mem=1900MB
#P OB98/GEN NMR

erre ene a

0 1
  C      963.336    -890.430     -47.865
  O      962.586    -891.190     -48.798
  P      963.385    -891.960     -49.971
  C      962.522    -894.400     -49.719
  O      963.577    -893.490     -49.496
  C      963.060    -895.830     -49.691
  O      964.068    -895.960     -50.723
  C      963.702    -896.260     -48.364
  O      963.451    -897.660     -48.209
  C      965.176    -896.030     -48.621
  O      965.998    -896.790     -47.738
  C      965.282    -896.420     -50.072
  N      970.263    -896.830     -50.864
  C      969.421    -897.580     -50.057
  N      969.981    -898.620     -49.440
  N      968.154    -897.340     -49.910
  C      967.722    -896.260     -50.607
  C      968.459    -895.420     -51.422
  C      969.846    -895.720     -51.604
  O      970.601    -895.130     -52.381
  N      967.683    -894.400     -51.894
  C      966.477    -894.670     -51.462
  N      966.445    -895.810     -50.720
  O      964.859    -891.340     -49.837
  O      962.813    -891.810     -51.356
  H      966.039    -896.320     -46.876
  H      964.975    -890.590     -50.453
  H      971.241    -897.070     -50.974
  H      965.587    -894.080     -51.654
  H      965.359    -897.510     -50.220
  H      965.418    -894.960     -48.473
  H      970.969    -898.890     -49.526
  H      963.316    -895.710     -47.502
  H      969.404    -899.210     -48.859
  H      962.235    -896.500     -49.955
  H      962.092    -894.210     -50.714
  H      961.724    -894.250     -48.971
  P      963.997    -898.380     -46.881
  C      961.629    -899.060     -46.076
  O      962.816    -898.340     -45.802
  O      965.045    -897.320     -46.294
  O      964.637    -899.710     -47.119
  H      965.768    -897.790     -45.845
  H      961.120    -899.310     -45.128
  H      961.829    -900.000     -46.594
  H      960.982    -898.460     -46.704
  H      962.673    -889.983     -47.154
  H      963.876    -889.664     -48.381
  H      964.025    -891.070     -47.356

 3  4  5  6  7  8  9  10  11  12  23  26  30  31 0
 6-311+G(2d,p)
 ****
 33  35  36  37  38 0
 6-311+G(2d,p)
 ****
 1  2  13  14  15  16  17  18  19  20  21  22  24  25 0
 3-21G
 ****
 27  28  29  32  34  39  40  41  42  43  44  45  46  47  48  49 0
 3-21G
 ****


