%nproc=1
%NoSave
%Mem=1900MB
#P OB98/GEN NMR

erre ene a

0 1
  C     -796.561      87.783     401.676
  O     -795.890      87.332     402.835
  H     -797.380      88.441     401.980
  H     -796.991      86.934     401.132
  H     -795.887      88.345     401.024
  P     -794.554      86.471     402.658
  C     -792.978      88.125     403.858
  O     -793.326      87.503     402.625
  C     -793.595      89.525     403.922
  O     -795.025      89.432     404.124
  C     -793.070      90.378     405.070
  O     -791.779      90.880     404.795
  C     -794.152      91.437     405.167
  O     -793.967      92.458     404.178
  C     -795.428      90.611     404.876
  N     -796.152      90.234     406.085
  C     -797.546      90.246     406.005
  O     -798.150      90.589     404.994
  N     -798.212      89.882     407.144
  C     -797.644      89.623     408.362
  O     -798.292      89.392     409.377
  C     -796.179      89.644     408.397
  C     -795.507      89.942     407.284
  O     -794.565      85.473     401.548
  O     -794.374      85.751     404.089
  H     -794.578      93.187     404.403
  H     -794.632      84.813     404.004
  H     -799.221      89.905     407.110
  H     -795.684      89.427     409.339
  H     -794.415      89.965     407.282
  H     -796.112      91.168     404.227
  H     -794.169      91.922     406.137
  H     -793.058      89.795     405.999
  H     -793.416      90.025     402.958
  H     -791.890      88.204     403.916
  H     -793.341      87.505     404.686
  P     -790.482      90.028     405.184
  C     -789.619      89.443     402.836
  O     -790.230      88.946     404.023
  O     -790.479      89.473     406.575
  O     -789.271      91.055     404.986
  H     -788.805      91.184     405.834
  H     -789.499      88.644     402.135
  H     -788.661      89.856     403.074
  H     -790.238      90.203     402.408

 6  7  8  9  10  11  12  13  14  15  16  26  31  32  33  34  35 0
 6-311+G(2d,p)
 ****
 36  37 0
 6-311+G(2d,p)
 ****
 1  2  3  4  5  17  18  19  20  21  22  23  24  25 0
 3-21G
 ****
 27  28  29  30  38  39  40  41  42  43  44  45 0
 3-21G
 ****


