%nproc=1
%NoSave
%Mem=1900MB
#P OB98/GEN NMR

erre ene a

0 1
  C      534.188    -128.294     138.297
  O      534.039    -129.212     137.233
  H      534.541    -127.341     137.890
  H      534.928    -128.666     139.008
  H      533.232    -128.135     138.801
  P      533.365    -130.622     137.583
  C      533.891    -132.495     139.350
  O      534.363    -131.380     138.593
  C      535.078    -133.307     139.877
  O      535.890    -132.520     140.776
  C      534.674    -134.515     140.706
  O      534.111    -135.548     139.930
  C      536.013    -134.867     141.335
  O      536.844    -135.579     140.412
  C      536.595    -133.462     141.619
  N      536.506    -133.093     143.027
  C      537.720    -133.086     143.734
  O      538.777    -133.360     143.167
  N      537.693    -132.786     145.087
  C      536.571    -132.506     145.660
  N      536.606    -132.227     146.991
  C      535.276    -132.478     144.943
  C      535.318    -132.787     143.654
  O      533.542    -131.448     136.221
  O      531.960    -130.559     138.083
  H      536.374    -136.410     140.192
  H      534.467    -131.469     135.896
  H      534.361    -132.223     145.472
  H      534.411    -132.796     143.047
  H      537.661    -133.414     141.327
  H      535.900    -135.503     142.209
  H      534.000    -134.210     141.512
  H      535.697    -133.595     139.015
  H      537.513    -132.279     147.453
  H      533.221    -133.124     138.752
  H      535.790    -132.030     147.554
  H      533.305    -132.099     140.190
  P      533.093    -136.596     140.589
  C      533.238    -138.369     142.455
  O      533.969    -137.514     141.567
  O      532.251    -137.354     139.626
  O      532.257    -135.703     141.623
  H      532.791    -135.269     142.316
  H      533.924    -138.930     143.055
  H      532.631    -139.041     141.884
  H      532.613    -137.775     143.089

 6  7  8  9  10  11  12  13  14  15  16  26  30  31  32  33  35 0
 6-311+G(2d,p)
 ****
 37  38 0
 6-311+G(2d,p)
 ****
 1  2  3  4  5  17  18  19  20  21  22  23  24  25 0
 3-21G
 ****
 27  28  29  34  36  39  40  41  42  43  44  45  46 0
 3-21G
 ****


