%nproc=1
%NoSave
%Mem=1900MB
#P OB98/GEN NMR

erre ene a

0 1
  C      -83.232     137.684    -143.793
  O      -83.507     139.015    -143.410
  H      -83.190     137.064    -142.894
  H      -82.269     137.623    -144.305
  H      -84.025     137.302    -144.443
  P      -83.556     140.147    -144.542
  C      -86.089     140.435    -144.945
  O      -84.922     140.962    -144.324
  C      -87.091     141.560    -145.226
  O      -88.088     141.045    -146.143
  C      -87.807     142.041    -143.955
  O      -87.725     143.451    -143.765
  C      -89.195     141.424    -144.081
  O      -90.216     142.125    -143.401
  C      -89.391     141.321    -145.598
  N      -90.347     140.292    -146.002
  C      -91.680     140.488    -145.653
  O      -92.119     141.467    -145.054
  N      -92.543     139.492    -146.034
  C      -92.211     138.352    -146.702
  O      -93.030     137.500    -147.022
  C      -90.785     138.192    -147.023
  C      -89.932     139.154    -146.662
  O      -83.328     139.675    -145.939
  O      -82.436     141.198    -144.088
  H      -91.073     141.731    -143.664
  H      -81.635     141.075    -144.631
  H      -93.513     139.629    -145.796
  H      -90.485     137.295    -147.544
  H      -88.872     139.069    -146.885
  H      -89.735     142.272    -146.005
  H      -89.162     140.414    -143.656
  H      -87.321     141.638    -143.059
  H      -86.569     142.380    -145.732
  H      -86.528     139.697    -144.268
  H      -85.815     139.941    -145.884
  P      -86.843     144.168    -142.645
  C      -85.269     145.248    -144.442
  O      -86.113     145.424    -143.314
  O      -86.003     143.263    -141.810
  O      -87.947     144.840    -141.679
  H      -87.572     144.824    -140.775
  H      -84.875     146.196    -144.744
  H      -85.833     144.823    -145.246
  H      -84.463     144.592    -144.186

 6  7  8  9  10  11  12  13  14  15  16  26  31  32  33  34  35 0
 6-311+G(2d,p)
 ****
 36  37 0
 6-311+G(2d,p)
 ****
 1  2  3  4  5  17  18  19  20  21  22  23  24  25 0
 3-21G
 ****
 27  28  29  30  38  39  40  41  42  43  44  45 0
 3-21G
 ****


