%nproc=1
%NoSave
%Mem=1900MB
#P OB98/GEN NMR

erre ene a

0 1
  C        7.966    -335.470     471.364
  O        8.110    -336.866     471.188
  P        7.774    -337.542     469.774
  C        6.369    -339.604     469.004
  O        6.773    -338.767     470.071
  C        6.295    -341.068     469.452
  O        7.613    -341.458     469.894
  C        5.357    -341.334     470.623
  O        5.060    -342.734     470.660
  C        6.230    -340.968     471.807
  O        5.766    -341.552     473.027
  C        7.632    -341.438     471.344
  N        8.695    -340.534     471.828
  C        8.608    -340.106     473.152
  O        7.736    -340.507     473.924
  N        9.491    -339.146     473.530
  C       10.407    -338.543     472.702
  O       10.975    -337.485     472.957
  C       10.610    -339.195     471.396
  C        9.739    -340.134     471.009
  O        9.153    -338.261     469.387
  O        7.322    -336.596     468.720
  H        5.832    -342.525     472.921
  H        9.663    -337.685     468.782
  H        9.340    -338.727     474.439
  H       11.429    -338.855     470.774
  H        9.839    -340.598     470.043
  H        7.859    -342.454     471.714
  H        6.227    -339.883     471.934
  H        4.428    -340.749     470.603
  H        6.027    -341.690     468.583
  H        7.064    -339.481     468.173
  H        5.391    -339.283     468.638
  P        3.742    -343.197     471.446
  C        2.887    -342.947     473.863
  O        4.000    -342.857     472.996
  O        3.269    -344.585     471.170
  O        2.652    -342.104     471.022
  H        1.754    -342.444     471.191
  H        3.237    -343.209     474.862
  H        2.176    -343.717     473.524
  H        2.378    -341.982     473.903
  H        8.235    -335.207     472.366
  H        6.949    -335.191     471.182
  H        8.605    -334.956     470.677

 3  4  5  6  7  8  9  10  11  12  13  23  28  29  30  31  32 0
 6-311+G(2d,p)
 ****
 33  34 0
 6-311+G(2d,p)
 ****
 1  2  14  15  16  17  18  19  20  21  22  24  25  26  27 0
 3-21G
 ****
 35  36  37  38  39  40  41  42  43  44  45 0
 3-21G
 ****


