%nproc=1
%NoSave
%Mem=1900MB
#P OB98/GEN NMR

erre ene a

0 1
  C       12.576    -144.170     445.808
  O       13.813    -143.827     445.198
  P       15.071    -143.528     446.147
  C       16.516    -145.534     445.364
  O       15.787    -144.937     446.428
  C       17.883    -146.023     445.837
  O       18.754    -144.874     446.032
  C       17.860    -146.803     447.155
  O       18.898    -147.788     447.085
  C       18.241    -145.752     448.182
  O       18.740    -146.331     449.387
  C       19.262    -144.947     447.383
  N       21.921    -142.096     450.691
  C       21.991    -143.405     450.370
  N       21.254    -144.094     449.479
  C       20.354    -143.287     448.887
  C       20.137    -141.944     449.137
  C       20.975    -141.335     450.088
  N       20.908    -140.000     450.410
  N       19.106    -141.464     448.353
  C       18.708    -142.500     447.647
  N       19.450    -143.615     447.918
  O       14.378    -143.171     447.546
  O       15.964    -142.430     445.686
  H       18.000    -146.779     449.839
  H       14.512    -142.227     447.751
  H       22.754    -143.976     450.896
  H       17.895    -142.495     446.934
  H       20.242    -145.439     447.348
  H       17.362    -145.146     448.438
  H       16.899    -147.280     447.375
  H       18.326    -146.631     445.040
  H       16.663    -144.788     444.578
  H       21.631    -139.612     450.994
  H       20.340    -139.386     449.833
  H       15.940    -146.367     444.949
  P       18.519    -149.277     447.540
  C       18.321    -150.335     445.180
  O       17.653    -149.915     446.359
  O       17.453    -149.043     448.712
  O       19.684    -150.085     448.011
  H       17.475    -149.793     449.337
  H       17.805    -151.205     444.775
  H       19.364    -150.598     445.376
  H       18.289    -149.523     444.445
  H       11.839    -144.339     445.050
  H       12.258    -143.370     446.443
  H       12.700    -145.060     446.390

 3  4  5  6  7  8  9  10  11  12  22  25  29  30  31  32 0
 6-311+G(2d,p)
 ****
 33  36  37 0
 6-311+G(2d,p)
 ****
 1  2  13  14  15  16  17  18  19  20  21  23  24  26 0
 3-21G
 ****
 27  28  34  35  38  39  40  41  42  43  44  45  46  47  48 0
 3-21G
 ****


