%nproc=1
%NoSave
%Mem=1900MB
#P OB98/GEN NMR

erre ene a

0 1
  C       94.575      79.652    -299.719
  O       94.967      81.028    -299.696
  P       95.772      81.509    -298.392
  C       93.682      82.910    -297.753
  O       94.687      82.008    -297.312
  C       93.539      84.088    -296.779
  O       92.937      83.652    -295.524
  C       94.874      84.765    -296.432
  O       94.601      86.161    -296.273
  C       95.214      84.124    -295.093
  O       96.210      84.829    -294.368
  C       93.820      84.087    -294.465
  N       90.899      82.675    -290.523
  C       90.722      83.600    -291.497
  N       91.552      83.922    -292.514
  C       92.662      83.163    -292.466
  C       92.988      82.187    -291.540
  C       92.038      81.945    -290.527
  N       92.221      81.021    -289.523
  N       94.236      81.642    -291.817
  C       94.676      82.344    -292.846
  N       93.732      83.213    -293.321
  O       96.486      82.858    -298.868
  O       96.743      80.495    -297.878
  H       97.017      84.925    -294.916
  H       97.418      82.687    -299.098
  H       89.790      84.159    -291.449
  H       95.663      82.262    -293.285
  H       93.489      85.079    -294.143
  H       95.591      83.109    -295.259
  H       95.648      84.632    -297.194
  H       92.856      84.823    -297.229
  H       92.722      82.395    -297.827
  H       91.484      80.920    -288.838
  H       93.063      80.467    -289.481
  H       93.928      83.256    -298.763
  P       94.946      87.159    -297.486
  C       97.001      88.060    -296.231
  O       96.536      87.381    -297.384
  O       94.401      88.546    -296.889
  O       94.379      86.801    -298.821
  H       94.737      88.698    -295.986
  H       98.090      88.074    -296.252
  H       96.664      87.550    -295.329
  H       96.634      89.097    -296.235
  H       94.050      79.446    -300.628
  H       93.937      79.449    -298.884
  H       95.445      79.032    -299.662

 3  4  5  6  7  8  9  10  11  12  22  25  29  30  31  32 0
 6-311+G(2d,p)
 ****
 33  36  37 0
 6-311+G(2d,p)
 ****
 1  2  13  14  15  16  17  18  19  20  21  23  24  26 0
 3-21G
 ****
 27  28  34  35  38  39  40  41  42  43  44  45  46  47  48 0
 3-21G
 ****


