%nproc=1
%NoSave
%Mem=1900MB
#P OB98/GEN NMR

erre ene a

0 1
  C     -523.594    1248.769      28.845
  O     -522.731    1247.657      28.981
  H     -523.029    1249.670      29.116
  H     -524.441    1248.680      29.524
  H     -523.938    1248.870      27.818
  P     -523.284    1246.204      28.545
  C     -521.705    1245.474      26.645
  O     -522.962    1246.046      26.981
  C     -520.630    1246.564      26.576
  O     -520.496    1247.178      27.888
  C     -519.247    1246.020      26.182
  O     -518.600    1246.985      25.344
  C     -518.506    1245.932      27.513
  O     -517.089    1246.041      27.352
  C     -519.116    1247.094      28.299
  N     -515.967    1245.894      32.062
  C     -515.726    1246.098      30.710
  N     -514.443    1245.929      30.301
  N     -516.642    1246.427      29.838
  C     -517.878    1246.579      30.389
  C     -518.250    1246.405      31.703
  C     -517.221    1246.015      32.654
  O     -517.386    1245.817      33.847
  N     -519.601    1246.610      31.858
  C     -520.042    1246.913      30.658
  N     -519.025    1246.897      29.733
  O     -524.697    1245.925      28.923
  O     -522.270    1245.190      29.237
  H     -516.808    1245.244      26.838
  H     -522.642    1244.813      30.059
  H     -515.240    1245.626      32.673
  H     -521.067    1247.125      30.408
  H     -518.634    1248.061      28.075
  H     -518.731    1244.975      27.990
  H     -513.683    1245.692      30.913
  H     -519.286    1245.069      25.671
  H     -514.230    1246.095      29.321
  H     -520.962    1247.333      25.882
  H     -521.798    1244.977      25.673
  H     -521.435    1244.728      27.394
  P     -519.072    1247.114      23.813
  C     -518.937    1249.660      23.418
  O     -519.790    1248.533      23.620
  O     -519.821    1245.938      23.269
  O     -517.674    1247.319      23.028
  H     -517.766    1246.941      22.148
  H     -519.532    1250.542      23.303
  H     -518.349    1249.509      22.537
  H     -518.290    1249.774      24.263

 6  7  8  9  10  11  12  13  14  15  26  29  33  34 0
 6-311+G(2d,p)
 ****
 36  38  39  40  41 0
 6-311+G(2d,p)
 ****
 1  2  3  4  5  16  17  18  19  20  21  22  23  24  25 0
 3-21G
 ****
 27  28  30  31  32  35  37  42  43  44  45  46  47 0
 3-21G
 ****
 48  49 0
 3-21G
 ****


