%nproc=1
%NoSave
%Mem=1900MB
#P OB98/GEN NMR

erre ene a

0 1
  C      -79.936     103.745      -4.645
  O      -79.404     102.593      -5.304
  P      -79.269     101.220      -4.487
  C      -81.466      99.875      -4.585
  O      -80.201     100.112      -5.186
  C      -82.273      98.852      -5.399
  O      -82.740      99.445      -6.647
  C      -81.446      97.613      -5.771
  O      -82.284      96.443      -5.811
  C      -81.007      97.914      -7.191
  O      -80.642      96.725      -7.893
  C      -82.247      98.625      -7.727
  N      -82.194      98.742     -12.852
  C      -82.603      97.795     -11.977
  N      -82.609      97.842     -10.627
  C      -82.144      99.027     -10.191
  C      -81.699     100.092     -10.963
  C      -81.729      99.916     -12.357
  N      -81.285     100.870     -13.244
  N      -81.291     101.140     -10.163
  C      -81.439     100.696      -8.930
  N      -81.981      99.439      -8.896
  O      -79.423     101.330      -3.006
  O      -77.794     100.719      -4.873
  H      -81.330      96.058      -7.719
  H      -77.357     100.370      -4.073
  H      -82.970      96.872     -12.422
  H      -81.158     101.235      -8.035
  H      -83.040      97.916      -7.992
  H      -80.139      98.585      -7.177
  H      -80.599      97.415      -5.108
  H      -83.166      98.567      -4.827
  H      -82.022     100.812      -4.511
  H      -81.235     100.612     -14.221
  H      -80.802     101.684     -12.888
  H      -81.317      99.533      -3.553
  P      -81.801      95.198      -4.906
  C      -81.862      96.104      -2.453
  O      -82.510      95.391      -3.482
  O      -80.317      95.017      -4.887
  O      -82.587      93.977      -5.581
  H      -83.540      94.126      -5.705
  H      -82.559      96.232      -1.620
  H      -81.549      97.094      -2.798
  H      -80.990      95.542      -2.100
  H      -79.957     104.569      -5.328
  H      -79.319     103.993      -3.806
  H      -80.930     103.536      -4.308

 3  4  5  6  7  8  9  10  11  12  22  25  29  30  31  32 0
 6-311+G(2d,p)
 ****
 33  36  37 0
 6-311+G(2d,p)
 ****
 1  2  13  14  15  16  17  18  19  20  21  23  24  26 0
 3-21G
 ****
 27  28  34  35  38  39  40  41  42  43  44  45  46  47  48 0
 3-21G
 ****


