%nproc=1
%NoSave
%Mem=1900MB
#P OB98/GEN NMR

erre ene a

0 1
  C      170.890      84.114     159.488
  O      171.719      83.175     160.142
  H      171.294      85.115     159.654
  H      169.878      84.074     159.899
  H      170.859      83.924     158.411
  P      171.468      81.610     159.890
  C      171.817      81.905     157.351
  O      170.943      81.462     158.381
  C      172.136      80.750     156.405
  O      170.917      80.159     155.907
  C      172.933      81.159     155.170
  O      174.295      81.381     155.493
  C      172.677      79.965     154.259
  O      173.529      78.866     154.604
  C      171.197      79.643     154.584
  N      170.257      80.187     153.603
  C      169.868      79.330     152.578
  O      170.307      78.183     152.457
  N      168.969      79.841     151.678
  C      168.497      81.123     151.662
  O      167.730      81.547     150.798
  C      168.969      81.994     152.746
  C      169.815      81.496     153.652
  O      170.635      80.912     160.915
  O      172.947      80.999     159.816
  H      173.345      78.155     153.959
  H      173.173      80.579     160.668
  H      168.683      79.238     150.921
  H      168.618      83.022     152.760
  H      170.174      82.125     154.458
  H      171.049      78.556     154.633
  H      172.860      80.191     153.207
  H      172.489      82.053     154.711
  H      172.678      79.981     156.977
  H      172.745      82.272     157.808
  H      171.337      82.728     156.809
  P      175.289      82.047     154.431
  C      174.548      84.443     154.971
  O      174.635      83.442     153.965
  O      175.717      81.153     153.314
  O      176.542      82.512     155.313
  H      177.299      81.913     155.156
  H      174.102      85.324     154.560
  H      175.529      84.674     155.330
  H      173.948      84.084     155.781

 6  7  8  9  10  11  12  13  14  15  16  26  31  32  33  34  35 0
 6-311+G(2d,p)
 ****
 36  37 0
 6-311+G(2d,p)
 ****
 1  2  3  4  5  17  18  19  20  21  22  23  24  25 0
 3-21G
 ****
 27  28  29  30  38  39  40  41  42  43  44  45 0
 3-21G
 ****


