%nproc=1
%NoSave
%Mem=1900MB
#P OB98/GEN NMR

erre ene a

0 1
  C      -19.045     -70.548     -76.159
  O      -20.251     -70.893     -75.459
  P      -21.662     -70.376     -76.028
  C      -24.184     -70.992     -75.701
  O      -22.840     -71.168     -75.280
  C      -25.020     -72.217     -75.320
  O      -24.751     -73.315     -76.222
  C      -24.733     -72.766     -73.930
  O      -25.330     -71.978     -72.915
  C      -25.319     -74.168     -74.033
  O      -26.739     -74.150     -73.809
  C      -25.004     -74.538     -75.496
  N      -23.886     -75.469     -75.613
  C      -24.061     -76.539     -76.484
  O      -25.110     -76.750     -77.090
  N      -22.994     -77.387     -76.609
  C      -21.821     -77.309     -75.914
  O      -20.908     -78.111     -76.057
  C      -21.726     -76.205     -74.948
  C      -22.748     -75.353     -74.840
  O      -21.695     -71.039     -77.488
  O      -21.822     -68.894     -76.116
  H      -27.132     -73.644     -74.547
  H      -22.235     -70.487     -78.085
  H      -23.088     -78.152     -77.258
  H      -20.822     -76.121     -74.360
  H      -22.693     -74.532     -74.132
  H      -25.885     -74.990     -75.969
  H      -24.888     -74.857     -73.299
  H      -23.650     -72.841     -73.775
  H      -26.081     -71.950     -75.417
  H      -24.208     -70.867     -76.787
  H      -24.589     -70.089     -75.235
  P      -24.379     -71.519     -71.704
  C      -24.503     -69.503     -70.045
  O      -25.166     -70.326     -70.979
  O      -23.190     -70.806     -72.506
  O      -23.951     -72.653     -70.834
  H      -23.505     -70.366     -73.314
  H      -23.451     -69.366     -70.305
  H      -24.577     -69.952     -69.051
  H      -24.992     -68.525     -70.030
  H      -18.204     -70.969     -75.649
  H      -18.945     -69.483     -76.193
  H      -19.088     -70.934     -77.156

 3  4  5  6  7  8  9  10  11  12  13  23  28  29  30  31  32 0
 6-311+G(2d,p)
 ****
 33  34 0
 6-311+G(2d,p)
 ****
 1  2  14  15  16  17  18  19  20  21  22  24  25  26 0
 3-21G
 ****
 27  35  36  37  38  39  40  41  42  43  44  45 0
 3-21G
 ****


