%nproc=1
%NoSave
%Mem=1900MB
#P OB98/GEN NMR

erre ene a

0 1
  C      122.192     263.881    -793.417
  O      121.449     263.069    -794.312
  H      122.737     263.260    -792.700
  H      122.921     264.469    -793.996
  H      121.524     264.571    -792.886
  P      120.307     262.154    -793.661
  C      121.488     259.865    -794.017
  O      120.411     260.721    -794.389
  C      121.549     258.664    -794.959
  O      120.297     257.949    -794.924
  C      121.780     259.011    -796.425
  O      123.145     259.273    -796.700
  C      121.310     257.732    -797.100
  O      122.346     256.735    -797.008
  C      120.109     257.332    -796.236
  N      116.434     256.305    -799.659
  C      117.560     255.635    -799.297
  N      118.472     255.960    -798.365
  C      118.133     257.103    -797.754
  C      117.020     257.895    -797.988
  C      116.149     257.453    -798.998
  N      115.036     258.186    -799.395
  N      117.021     259.000    -797.164
  C      118.130     258.896    -796.467
  N      118.833     257.766    -796.777
  O      118.957     262.787    -794.259
  O      120.293     262.119    -792.170
  H      122.013     255.942    -797.471
  H      118.574     263.404    -793.608
  H      117.741     254.702    -799.848
  H      118.467     259.616    -795.725
  H      120.053     256.244    -796.074
  H      121.078     257.869    -798.166
  H      121.136     259.844    -796.763
  H      122.325     257.978    -794.591
  H      121.338     259.515    -792.986
  H      114.777     258.037    -800.368
  H      115.021     259.147    -799.063
  H      122.431     260.434    -794.069
  P      123.648     260.794    -796.657
  C      123.779     260.627    -799.235
  O      124.407     261.077    -798.041
  O      124.812     260.757    -795.571
  O      122.591     261.804    -796.285
  H      124.639     261.409    -794.859
  H      124.390     260.880    -800.076
  H      122.823     261.097    -799.334
  H      123.652     259.565    -799.193

 6  7  8  9  10  11  12  13  14  15  25  28  32  33  34  35 0
 6-311+G(2d,p)
 ****
 36  39  40 0
 6-311+G(2d,p)
 ****
 1  2  3  4  5  16  17  18  19  20  21  22  23  24 0
 3-21G
 ****
 26  27  29  30  31  37  38  41  42  43  44  45  46  47  48 0
 3-21G
 ****


