%nproc=1
%NoSave
%Mem=1900MB
#P OB98/GEN NMR

erre ene a

0 1
  C     -104.304     -89.797     313.002
  O     -103.123     -90.314     313.589
  H     -105.018     -89.565     313.802
  H     -104.752     -90.545     312.346
  H     -104.093     -88.881     312.447
  P     -101.854     -90.607     312.655
  C     -100.159     -89.499     314.255
  O     -100.563     -90.700     313.613
  C      -99.208     -89.806     315.422
  O      -99.965     -90.454     316.478
  C      -98.037     -90.729     315.045
  O      -96.866     -90.317     315.749
  C      -98.490     -92.087     315.543
  O      -97.389     -92.951     315.838
  C      -99.319     -91.713     316.775
  N      -99.961     -96.388     318.596
  C      -98.819     -95.621     318.495
  N      -97.670     -96.181     318.932
  N      -98.801     -94.405     318.011
  C     -100.030     -93.956     317.640
  C     -101.232     -94.617     317.685
  C     -101.236     -95.966     318.204
  O     -102.215     -96.706     318.298
  N     -102.254     -93.835     317.192
  C     -101.665     -92.702     316.849
  N     -100.311     -92.730     317.088
  O     -101.701     -89.677     311.491
  O     -102.055     -92.120     312.175
  H      -97.754     -93.714     316.338
  H     -102.347     -92.155     311.246
  H      -99.920     -97.321     318.967
  H     -102.163     -91.842     316.423
  H      -98.697     -91.580     317.675
  H      -99.116     -92.574     314.782
  H      -97.616     -97.104     319.337
  H      -97.842     -90.726     313.971
  H      -96.817     -95.628     318.896
  H      -98.837     -88.857     315.828
  H     -101.052     -88.989     314.632
  H      -99.657     -88.849     313.526
  P      -96.181     -88.915     315.369
  C      -95.308     -88.452     317.748
  O      -94.960     -88.642     316.379
  O      -97.122     -87.768     315.202
  O      -95.427     -89.244     313.988
  H      -95.450     -88.455     313.420
  H      -94.421     -88.280     318.321
  H      -95.805     -89.326     318.114
  H      -95.959     -87.608     317.837

 6  7  8  9  10  11  12  13  14  15  26  29  33  34 0
 6-311+G(2d,p)
 ****
 36  38  39  40  41 0
 6-311+G(2d,p)
 ****
 1  2  3  4  5  16  17  18  19  20  21  22  23  24  25 0
 3-21G
 ****
 27  28  30  31  32  35  37  42  43  44  45  46  47 0
 3-21G
 ****
 48  49 0
 3-21G
 ****


