%nproc=1
%NoSave
%Mem=1900MB
#P OB98/GEN NMR

erre ene a

0 1
  C      270.521    -244.175    -319.077
  O      270.622    -244.559    -320.435
  H      269.515    -243.786    -318.895
  H      271.251    -243.386    -318.855
  H      270.692    -245.033    -318.422
  P      271.987    -245.267    -320.890
  C      273.186    -243.202    -321.946
  O      273.120    -244.123    -320.866
  C      274.557    -243.280    -322.611
  O      274.578    -242.362    -323.738
  C      275.710    -242.879    -321.674
  O      276.850    -243.692    -321.956
  C      275.995    -241.438    -322.069
  O      277.310    -241.003    -321.750
  C      275.717    -241.489    -323.579
  N      275.446    -240.171    -324.146
  C      276.538    -239.369    -324.452
  O      277.717    -239.713    -324.353
  N      276.236    -238.104    -324.896
  C      274.984    -237.579    -325.037
  O      274.778    -236.427    -325.419
  C      273.874    -238.472    -324.682
  C      274.146    -239.709    -324.259
  O      271.767    -245.523    -322.459
  O      272.352    -246.510    -320.153
  H      271.363    -246.403    -322.607
  H      277.937    -241.510    -322.305
  H      277.017    -237.506    -325.128
  H      272.867    -238.079    -324.775
  H      273.350    -240.385    -323.986
  H      276.562    -241.953    -324.102
  H      275.288    -240.764    -321.573
  H      275.446    -242.962    -320.616
  H      274.709    -244.294    -323.011
  H      273.020    -242.190    -321.559
  H      272.398    -243.443    -322.672
  P      277.103    -244.964    -321.006
  C      278.170    -243.624    -319.024
  O      277.077    -244.398    -319.500
  O      278.647    -245.267    -321.289
  O      276.166    -246.098    -321.288
  H      279.183    -244.468    -321.420
  H      277.986    -243.333    -318.011
  H      278.280    -242.750    -319.632
  H      279.067    -244.206    -319.071

 6  7  8  9  10  11  12  13  14  15  16  27  31  32  33  34  35 0
 6-311+G(2d,p)
 ****
 36  37 0
 6-311+G(2d,p)
 ****
 1  2  3  4  5  17  18  19  20  21  22  23  24  25 0
 3-21G
 ****
 26  28  29  30  38  39  40  41  42  43  44  45 0
 3-21G
 ****


