%nproc=1
%NoSave
%Mem=1900MB
#P OB98/GEN NMR

erre ene a

0 1
  C     -127.868      20.807     146.143
  O     -128.010      22.061     145.509
  H     -127.168      20.916     146.976
  H     -127.461      20.078     145.440
  H     -128.826      20.458     146.535
  P     -129.091      22.221     144.338
  C     -127.957      20.886     142.443
  O     -128.991      20.909     143.417
  C     -127.284      19.511     142.400
  O     -128.247      18.538     141.919
  C     -126.061      19.452     141.480
  O     -125.074      18.604     142.066
  C     -126.602      18.813     140.215
  O     -125.588      18.139     139.474
  C     -127.678      17.882     140.769
  N     -130.061      14.201     138.261
  C     -129.121      14.127     139.268
  N     -128.742      12.890     139.654
  N     -128.593      15.175     139.845
  C     -129.081      16.348     139.373
  C     -130.011      16.553     138.382
  C     -130.571      15.385     137.737
  O     -131.396      15.388     136.829
  N     -130.231      17.892     138.175
  C     -129.434      18.493     139.038
  N     -128.707      17.601     139.781
  O     -129.023      23.514     143.589
  O     -130.499      22.042     145.072
  H     -125.034      18.831     139.052
  H     -130.952      22.898     145.173
  H     -130.426      13.363     137.843
  H     -129.342      19.564     139.163
  H     -127.270      16.915     141.088
  H     -127.043      19.584     139.571
  H     -129.125      12.040     139.270
  H     -125.635      20.438     141.296
  H     -128.076      12.808     140.413
  H     -127.021      19.220     143.423
  H     -127.218      21.648     142.709
  H     -128.379      21.129     141.462
  P     -123.773      19.268     142.730
  C     -122.103      18.439     140.961
  O     -122.701      19.573     141.573
  O     -123.227      18.554     143.921
  O     -124.286      20.735     143.126
  H     -123.843      21.011     143.953
  H     -121.411      18.762     140.211
  H     -122.862      17.835     140.510
  H     -121.585      17.866     141.701

 6  7  8  9  10  11  12  13  14  15  26  29  33  34 0
 6-311+G(2d,p)
 ****
 36  38  39  40  41 0
 6-311+G(2d,p)
 ****
 1  2  3  4  5  16  17  18  19  20  21  22  23  24  25 0
 3-21G
 ****
 27  28  30  31  32  35  37  42  43  44  45  46  47 0
 3-21G
 ****
 48  49 0
 3-21G
 ****


