%nproc=1
%NoSave
%Mem=1900MB
#P OB98/GEN NMR

erre ene a

0 1
  C       25.360    -418.264    -252.838
  O       26.677    -418.637    -253.189
  H       24.982    -418.967    -252.092
  H       24.704    -418.295    -253.713
  H       25.350    -417.258    -252.404
  P       27.439    -417.801    -254.323
  C       28.003    -418.368    -256.778
  O       27.038    -418.462    -255.731
  C       27.806    -419.515    -257.777
  O       28.243    -420.743    -257.134
  C       26.335    -419.685    -258.197
  O       26.155    -419.692    -259.614
  C       25.892    -420.921    -257.423
  O       24.830    -421.634    -258.017
  C       27.194    -421.720    -257.272
  N       27.195    -422.636    -256.134
  C       26.715    -423.929    -256.355
  O       26.318    -424.366    -257.435
  N       26.720    -424.754    -255.258
  C       27.121    -424.420    -253.999
  O       27.108    -425.207    -253.059
  C       27.593    -423.039    -253.824
  C       27.611    -422.222    -254.883
  O       28.907    -417.611    -254.112
  O       26.665    -416.398    -254.355
  H       24.294    -420.999    -258.534
  H       27.193    -415.723    -253.889
  H       26.384    -425.694    -255.410
  H       27.915    -422.736    -252.838
  H       27.948    -421.195    -254.786
  H       27.392    -422.307    -258.170
  H       25.549    -420.603    -256.435
  H       25.735    -418.826    -257.871
  H       28.462    -419.347    -258.641
  H       28.997    -418.425    -256.326
  H       27.894    -417.405    -257.291
  P       24.900    -419.056    -260.365
  C       22.773    -419.987    -261.599
  O       23.926    -420.251    -260.806
  O       25.220    -418.036    -261.408
  O       24.086    -418.314    -259.188
  H       23.666    -417.525    -259.589
  H       22.254    -420.903    -261.789
  H       23.072    -419.547    -262.527
  H       22.127    -419.313    -261.076

 6  7  8  9  10  11  12  13  14  15  16  26  31  32  33  34  35 0
 6-311+G(2d,p)
 ****
 36  37 0
 6-311+G(2d,p)
 ****
 1  2  3  4  5  17  18  19  20  21  22  23  24  25 0
 3-21G
 ****
 27  28  29  30  38  39  40  41  42  43  44  45 0
 3-21G
 ****


