%nproc=1
%NoSave
%Mem=1900MB
#P OB98/GEN NMR

erre ene a

0 1
  C      300.721      89.447      16.245
  O      300.496      89.637      17.625
  H      300.082      90.135      15.685
  H      300.461      88.423      15.962
  H      301.765      89.649      15.992
  P      301.444      88.840      18.646
  C      300.461      90.593      20.291
  O      301.009      89.293      20.125
  C      300.960      91.218      21.594
  O      300.472      90.427      22.708
  C      302.486      91.288      21.697
  O      302.845      92.514      22.339
  C      302.838      90.122      22.604
  O      304.078      90.309      23.285
  C      301.606      90.056      23.516
  N      301.445      88.727      24.101
  C      302.448      88.297      24.971
  O      303.418      89.023      25.207
  N      302.368      87.040      25.508
  C      301.412      86.244      25.140
  N      301.402      84.997      25.686
  C      300.366      86.629      24.171
  C      300.438      87.876      23.702
  O      302.868      89.540      18.453
  O      301.502      87.364      18.443
  H      304.220      89.544      23.885
  H      303.597      88.906      18.595
  H      299.606      85.924      23.877
  H      299.720      88.245      22.983
  H      301.688      90.789      24.329
  H      302.917      89.205      22.007
  H      302.988      91.222      20.728
  H      300.516      92.216      21.693
  H      302.147      84.764      26.333
  H      299.369      90.518      20.328
  H      300.734      84.282      25.439
  H      300.741      91.216      19.436
  P      303.204      93.750      21.381
  C      303.980      94.939      23.558
  O      304.205      94.720      22.171
  O      301.837      94.579      21.322
  O      303.661      93.341      20.021
  H      301.425      94.484      20.444
  H      304.726      95.604      23.940
  H      304.033      94.006      24.080
  H      303.011      95.371      23.698

 6  7  8  9  10  11  12  13  14  15  16  26  30  31  32  33  35 0
 6-311+G(2d,p)
 ****
 37  38 0
 6-311+G(2d,p)
 ****
 1  2  3  4  5  17  18  19  20  21  22  23  24  25 0
 3-21G
 ****
 27  28  29  34  36  39  40  41  42  43  44  45  46 0
 3-21G
 ****


