%nproc=1
%NoSave
%Mem=1900MB
#P OB98/GEN NMR

erre ene a

0 1
  C      338.059    -233.628     210.678
  O      337.113    -232.882     209.934
  H      337.684    -234.651     210.792
  H      338.186    -233.193     211.674
  H      339.019    -233.665     210.165
  P      337.487    -231.387     209.493
  C      337.739    -229.103     210.666
  O      337.497    -230.493     210.822
  C      337.205    -228.342     211.883
  O      338.166    -228.373     212.956
  C      336.913    -226.875     211.608
  O      335.711    -226.711     210.883
  C      336.883    -226.323     213.025
  O      335.611    -226.575     213.647
  C      338.004    -227.144     213.713
  N      339.265    -226.410     213.807
  C      339.722    -226.138     215.091
  O      339.104    -226.448     216.113
  N      340.916    -225.461     215.171
  C      341.611    -224.947     214.119
  O      342.628    -224.270     214.245
  C      341.071    -225.245     212.785
  C      339.939    -225.950     212.691
  O      336.689    -230.828     208.364
  O      339.043    -231.487     209.117
  H      334.933    -226.266     213.015
  H      339.141    -231.468     208.147
  H      341.251    -225.243     216.088
  H      341.597    -224.864     211.924
  H      339.520    -226.180     211.713
  H      337.698    -227.437     214.724
  H      337.045    -225.245     213.057
  H      337.756    -226.417     211.078
  H      336.294    -228.859     212.228
  H      337.224    -228.756     209.763
  H      338.821    -228.936     210.553
  P      335.681    -225.760     209.599
  C      336.505    -223.410     208.953
  O      336.386    -224.373     209.993
  O      334.350    -225.623     208.925
  O      336.748    -226.432     208.604
  H      336.299    -226.692     207.768
  H      336.987    -222.533     209.332
  H      335.531    -223.153     208.592
  H      337.086    -223.819     208.153

 6  7  8  9  10  11  12  13  14  15  16  26  31  32  33  34  35 0
 6-311+G(2d,p)
 ****
 36  37 0
 6-311+G(2d,p)
 ****
 1  2  3  4  5  17  18  19  20  21  22  23  24  25 0
 3-21G
 ****
 27  28  29  30  38  39  40  41  42  43  44  45 0
 3-21G
 ****


