%nproc=1
%NoSave
%Mem=1900MB
#P OB98/GEN NMR

erre ene a

0 1
  C       78.798     -83.872     -37.187
  O       77.724     -83.175     -36.548
  P       78.113     -81.798     -35.816
  C       79.153     -83.256     -33.941
  O       79.292     -82.110     -34.771
  C       79.710     -83.001     -32.534
  O       81.149     -82.766     -32.577
  C       79.081     -81.788     -31.832
  O       79.019     -82.097     -30.433
  C       80.121     -80.703     -32.050
  O       79.953     -79.624     -31.130
  C       81.399     -81.523     -31.884
  N       84.711     -77.792     -31.096
  C       83.556     -78.114     -30.410
  N       83.266     -77.361     -29.325
  N       82.752     -79.089     -30.757
  C       83.194     -79.780     -31.840
  C       84.327     -79.569     -32.591
  C       85.187     -78.467     -32.215
  O       86.224     -78.142     -32.783
  N       84.447     -80.503     -33.601
  C       83.347     -81.229     -33.483
  N       82.583     -80.869     -32.404
  O       76.841     -81.508     -34.887
  O       78.380     -80.670     -36.760
  H       79.859     -80.011     -30.235
  H       76.265     -80.840     -35.305
  H       85.281     -77.017     -30.792
  H       83.066     -82.041     -34.138
  H       81.611     -81.750     -30.831
  H       80.044     -80.300     -33.068
  H       83.865     -76.631     -28.970
  H       78.091     -81.509     -32.206
  H       82.444     -77.603     -28.778
  H       79.541     -83.903     -31.931
  H       79.681     -84.104     -34.384
  H       78.096     -83.542     -33.900
  P       77.633     -82.656     -29.850
  C       76.733     -80.369     -29.032
  O       76.575     -81.458     -29.919
  O       77.931     -82.802     -28.282
  O       77.191     -83.961     -30.435
  H       77.500     -83.609     -27.939
  H       76.281     -79.481     -29.478
  H       77.791     -80.158     -28.829
  H       76.226     -80.588     -28.090
  H       78.424     -84.768     -37.638
  H       79.543     -84.122     -36.461
  H       79.230     -83.247     -37.941

 3  4  5  6  7  8  9  10  11  12  23  26  30  31 0
 6-311+G(2d,p)
 ****
 33  35  36  37  38 0
 6-311+G(2d,p)
 ****
 1  2  13  14  15  16  17  18  19  20  21  22  24  25 0
 3-21G
 ****
 27  28  29  32  34  39  40  41  42  43  44  45  46  47  48  49 0
 3-21G
 ****


