%nproc=1
%NoSave
%Mem=1900MB
#P OB98/GEN NMR

erre ene a

0 1
  C       -7.853     686.232    -119.663
  O       -8.268     687.407    -118.991
  P       -8.928     687.324    -117.534
  C      -11.516     687.793    -117.419
  O      -10.461     686.891    -117.692
  C      -11.830     688.599    -118.691
  O      -12.137     687.707    -119.782
  C      -13.030     689.518    -118.488
  O      -12.602     690.822    -118.115
  C      -13.711     689.475    -119.835
  O      -13.072     690.378    -120.765
  C      -13.472     688.003    -120.259
  N      -14.391     686.967    -119.734
  C      -15.653     686.827    -120.292
  O      -16.067     687.501    -121.237
  N      -16.451     685.880    -119.709
  C      -16.103     685.060    -118.671
  O      -16.892     684.401    -118.005
  C      -14.677     685.075    -118.310
  C      -13.899     686.027    -118.833
  O       -9.024     688.860    -117.096
  O       -8.180     686.505    -116.532
  H      -13.199     691.280    -120.412
  H       -8.282     689.098    -116.503
  H      -17.431     685.870    -120.006
  H      -14.323     684.349    -117.597
  H      -12.853     686.075    -118.558
  H      -13.466     687.907    -121.355
  H      -14.754     689.805    -119.768
  H      -13.707     689.099    -117.734
  H      -10.943     689.185    -118.965
  H      -11.234     688.463    -116.601
  H      -12.404     687.241    -117.089
  P      -13.648     691.844    -117.454
  C      -14.666     693.787    -118.787
  O      -14.539     692.378    -118.681
  O      -13.063     692.906    -116.582
  O      -14.640     690.881    -116.639
  H      -14.377     690.856    -115.698
  H      -15.139     694.023    -119.746
  H      -13.694     694.275    -118.742
  H      -15.310     694.159    -117.974
  H       -7.440     686.493    -120.615
  H       -8.694     685.586    -119.803
  H       -7.111     685.730    -119.078

 3  4  5  6  7  8  9  10  11  12  13  23  28  29  30  31  32 0
 6-311+G(2d,p)
 ****
 33  34 0
 6-311+G(2d,p)
 ****
 1  2  14  15  16  17  18  19  20  21  22  24  25  26  27 0
 3-21G
 ****
 35  36  37  38  39  40  41  42  43  44  45 0
 3-21G
 ****


