%nproc=1
%NoSave
%Mem=1900MB
#P OB98/GEN NMR

erre ene a

0 1
  C        8.311     430.712     355.261
  O        9.602     430.913     354.730
  P       10.948     430.706     355.567
  C       11.900     432.735     354.215
  O       12.140     431.464     354.801
  C       13.098     433.674     354.427
  O       12.764     434.983     353.885
  C       13.405     433.864     355.924
  O       14.793     433.863     356.242
  C       12.611     435.117     356.276
  O       13.052     435.768     357.456
  C       12.719     435.939     354.985
  N       10.016     439.826     356.815
  C       11.208     439.302     357.279
  N       11.631     439.755     358.479
  N       11.898     438.393     356.635
  C       11.287     437.953     355.508
  C       10.114     438.399     354.950
  C        9.373     439.426     355.657
  O        8.261     439.843     355.333
  N        9.767     437.671     353.830
  C       10.723     436.771     353.734
  N       11.654     436.880     354.741
  O       11.211     429.336     356.094
  O       10.697     431.677     356.835
  H       12.361     436.400     357.720
  H       11.126     431.259     357.612
  H        9.485     440.465     357.401
  H       10.770     435.999     352.961
  H       13.649     436.508     354.956
  H       11.565     434.815     356.453
  H       11.049     440.340     359.064
  H       13.008     433.020     356.507
  H       12.357     439.215     358.954
  H       13.963     433.297     353.873
  H       11.009     433.137     354.700
  H       11.677     432.628     353.143
  P       15.656     432.708     356.917
  C       14.323     432.652     359.114
  O       15.587     432.874     358.506
  O       17.178     433.080     356.585
  O       15.350     431.321     356.422
  H       17.684     432.274     356.378
  H       14.341     433.063     360.127
  H       14.125     431.581     359.169
  H       13.527     433.149     358.542
  H        7.580     430.914     354.507
  H        8.160     431.371     356.090
  H        8.214     429.698     355.589

 3  4  5  6  7  8  9  10  11  12  23  26  30  31 0
 6-311+G(2d,p)
 ****
 33  35  36  37  38 0
 6-311+G(2d,p)
 ****
 1  2  13  14  15  16  17  18  19  20  21  22  24  25 0
 3-21G
 ****
 27  28  29  32  34  39  40  41  42  43  44  45  46  47  48  49 0
 3-21G
 ****


