%nproc=1
%NoSave
%Mem=1900MB
#P OB98/GEN NMR

erre ene a

0 1
  C     -241.147      -4.718     -66.037
  O     -241.543      -6.068     -66.176
  H     -242.027      -4.086     -65.901
  H     -240.508      -4.629     -65.155
  H     -240.583      -4.391     -66.916
  P     -242.346      -6.452     -67.510
  C     -241.484      -8.878     -67.869
  O     -242.556      -8.045     -67.450
  C     -240.554      -9.182     -66.694
  O     -241.356      -9.607     -65.560
  C     -239.539     -10.292     -66.988
  O     -238.294      -9.954     -66.375
  C     -240.139     -11.509     -66.304
  O     -239.153     -12.476     -65.963
  C     -240.834     -10.871     -65.105
  N     -243.132     -12.548     -60.866
  C     -242.152     -11.641     -61.063
  N     -241.599     -11.245     -62.229
  C     -242.197     -11.857     -63.267
  C     -243.206     -12.804     -63.223
  C     -243.674     -13.158     -61.947
  N     -244.647     -14.109     -61.733
  N     -243.528     -13.227     -64.498
  C     -242.730     -12.545     -65.296
  N     -241.904     -11.708     -64.596
  O     -241.231      -6.262     -68.647
  O     -243.570      -5.647     -67.787
  H     -239.609     -13.313     -65.736
  H     -241.146      -5.314     -68.862
  H     -241.755     -11.173     -60.165
  H     -242.702     -12.625     -66.374
  H     -240.145     -10.682     -64.271
  H     -240.868     -11.984     -66.971
  H     -239.387     -10.454     -68.056
  H     -240.052      -8.254     -66.395
  H     -240.922      -8.367     -68.657
  H     -244.882     -14.341     -60.783
  H     -245.018     -14.619     -62.522
  H     -241.890      -9.814     -68.269
  P     -237.019     -10.835     -66.795
  C     -235.072      -9.124     -66.782
  O     -235.711     -10.201     -66.112
  O     -236.836     -10.504     -68.350
  O     -237.205     -12.301     -66.567
  H     -236.751     -11.331     -68.859
  H     -234.222      -8.806     -66.216
  H     -235.758      -8.309     -66.883
  H     -234.754      -9.445     -67.752

 6  7  8  9  10  11  12  13  14  15  25  28  32  33  34  35 0
 6-311+G(2d,p)
 ****
 36  39  40 0
 6-311+G(2d,p)
 ****
 1  2  3  4  5  16  17  18  19  20  21  22  23  24 0
 3-21G
 ****
 26  27  29  30  31  37  38  41  42  43  44  45  46  47 0
 3-21G
 ****
 48 0
 3-21G
 ****


