%nproc=1
%NoSave
%Mem=1900MB
#P OB98/GEN NMR

erre ene a

0 1
  C      281.809    -504.980    -269.826
  O      283.078    -505.424    -269.388
  H      281.119    -505.829    -269.810
  H      281.875    -504.608    -270.851
  H      281.421    -504.201    -269.166
  P      284.240    -504.343    -269.172
  C      284.307    -504.606    -266.603
  O      284.048    -503.735    -267.702
  C      284.813    -503.799    -265.414
  O      286.162    -503.341    -265.656
  C      283.999    -502.546    -265.121
  O      282.782    -502.863    -264.473
  C      284.986    -501.754    -264.269
  O      284.974    -502.217    -262.915
  C      286.328    -502.092    -264.957
  N      286.780    -501.035    -265.863
  C      288.085    -501.146    -266.344
  O      288.856    -502.043    -266.008
  N      288.491    -500.148    -267.190
  C      287.778    -499.028    -267.517
  O      288.229    -498.124    -268.215
  C      286.421    -498.957    -266.963
  C      285.991    -499.948    -266.179
  O      284.390    -503.327    -270.257
  O      285.562    -505.235    -269.018
  H      284.987    -503.199    -262.957
  H      286.084    -505.179    -269.840
  H      289.439    -500.203    -267.537
  H      285.822    -498.097    -267.209
  H      284.994    -499.910    -265.755
  H      287.109    -502.251    -264.200
  H      284.750    -500.696    -264.250
  H      283.811    -501.997    -266.050
  H      284.836    -504.461    -264.537
  H      285.064    -505.337    -266.905
  H      283.383    -505.140    -266.349
  P      281.560    -501.829    -264.521
  C      280.312    -502.930    -266.477
  O      281.016    -501.777    -266.030
  O      281.831    -500.500    -263.898
  O      280.392    -502.592    -263.744
  H      280.129    -502.068    -262.963
  H      279.998    -502.786    -267.490
  H      279.455    -503.087    -265.856
  H      280.954    -503.784    -266.421

 6  7  8  9  10  11  12  13  14  15  16  26  31  32  33  34  35 0
 6-311+G(2d,p)
 ****
 36  37 0
 6-311+G(2d,p)
 ****
 1  2  3  4  5  17  18  19  20  21  22  23  24  25 0
 3-21G
 ****
 27  28  29  30  38  39  40  41  42  43  44  45 0
 3-21G
 ****


