%nproc=1
%NoSave
%Mem=1900MB
#P OB98/GEN NMR

erre ene a

0 1
  C      130.716    -125.188      28.495
  O      130.495    -126.466      27.923
  P      130.828    -126.652      26.363
  C      128.338    -126.547      25.631
  O      129.630    -125.964      25.541
  C      127.340    -125.799      24.742
  O      127.046    -124.508      25.348
  C      127.838    -125.529      23.311
  O      126.693    -125.611      22.453
  C      128.348    -124.101      23.414
  O      128.514    -123.455      22.163
  C      127.290    -123.501      24.338
  N      127.066    -118.402      24.013
  C      126.472    -119.378      23.289
  N      126.573    -120.716      23.437
  C      127.380    -121.017      24.471
  C      128.067    -120.135      25.288
  C      127.885    -118.765      25.027
  N      128.501    -117.771      25.764
  N      128.818    -120.813      26.226
  C      128.591    -122.087      25.977
  N      127.713    -122.260      24.942
  O      130.585    -128.214      26.124
  O      132.206    -126.228      25.955
  H      128.838    -122.542      22.301
  H      131.250    -128.587      25.512
  H      125.832    -119.037      22.480
  H      129.044    -122.919      26.503
  H      126.343    -123.317      23.813
  H      129.328    -124.110      23.903
  H      128.590    -126.247      22.973
  H      126.405    -126.369      24.716
  H      127.983    -126.489      26.666
  H      128.465    -116.839      25.377
  H      129.260    -118.052      26.375
  H      128.395    -127.605      25.354
  P      126.611    -126.802      21.378
  C      127.699    -125.352      19.554
  O      127.829    -126.498      20.373
  O      125.351    -126.335      20.507
  O      126.508    -128.178      21.938
  H      125.436    -125.410      20.216
  H      128.632    -125.212      18.998
  H      127.514    -124.464      20.167
  H      126.881    -125.494      18.842
  H      130.453    -125.211      29.532
  H      130.113    -124.462      27.990
  H      131.749    -124.926      28.395

 3  4  5  6  7  8  9  10  11  12  22  25  29  30  31  32 0
 6-311+G(2d,p)
 ****
 33  36  37 0
 6-311+G(2d,p)
 ****
 1  2  13  14  15  16  17  18  19  20  21  23  24  26 0
 3-21G
 ****
 27  28  34  35  38  39  40  41  42  43  44  45  46  47  48 0
 3-21G
 ****


