%nproc=1
%NoSave
%Mem=1900MB
#P OB98/GEN NMR

erre ene a

0 1
  C      116.215    -158.600    -142.906
  O      115.349    -158.995    -141.862
  H      116.881    -157.821    -142.529
  H      115.643    -158.195    -143.745
  H      116.820    -159.449    -143.240
  P      114.218    -160.089    -142.169
  C      115.388    -162.393    -142.135
  O      114.647    -161.430    -141.393
  C      115.671    -163.625    -141.267
  O      116.753    -163.288    -140.362
  C      114.454    -164.046    -140.429
  O      114.117    -165.424    -140.592
  C      114.809    -163.556    -139.030
  O      114.186    -164.274    -137.985
  C      116.340    -163.606    -139.021
  N      116.954    -162.690    -138.061
  C      117.434    -163.236    -136.871
  O      117.388    -164.426    -136.571
  N      117.992    -162.340    -135.995
  C      118.107    -160.993    -136.180
  O      118.622    -160.244    -135.360
  C      117.558    -160.474    -137.443
  C      117.016    -161.331    -138.311
  O      113.885    -160.284    -143.610
  O      112.949    -159.582    -141.335
  H      114.483    -163.872    -137.142
  H      112.293    -159.193    -141.945
  H      118.355    -162.723    -135.135
  H      117.621    -159.408    -137.616
  H      116.604    -160.982    -139.253
  H      116.688    -164.613    -138.785
  H      114.487    -162.511    -138.937
  H      113.550    -163.526    -140.769
  H      116.020    -164.439    -141.913
  H      116.327    -161.924    -142.449
  H      114.821    -162.688    -143.025
  P      113.034    -165.988    -141.618
  C      114.516    -166.165    -143.784
  O      113.791    -166.823    -142.752
  O      111.999    -165.014    -142.075
  O      112.277    -167.138    -140.775
  H      111.352    -167.152    -141.098
  H      114.946    -166.894    -144.438
  H      115.294    -165.571    -143.351
  H      113.853    -165.535    -144.339

 6  7  8  9  10  11  12  13  14  15  16  26  31  32  33  34  35 0
 6-311+G(2d,p)
 ****
 36  37 0
 6-311+G(2d,p)
 ****
 1  2  3  4  5  17  18  19  20  21  22  23  24  25 0
 3-21G
 ****
 27  28  29  30  38  39  40  41  42  43  44  45 0
 3-21G
 ****


