%nproc=1
%NoSave
%Mem=1900MB
#P OB98/GEN NMR

erre ene a

0 1
  C       -7.255     -12.959      -9.428
  O       -6.565     -11.785      -9.803
  H       -7.130     -13.704     -10.217
  H       -8.323     -12.757      -9.304
  H       -6.841     -13.363      -8.500
  P       -6.691     -10.493      -8.859
  C       -5.937      -9.992      -6.431
  O       -6.054     -10.963      -7.459
  C       -5.945     -10.668      -5.062
  O       -7.168     -11.403      -4.854
  C       -4.836     -11.694      -4.848
  O       -3.560     -11.111      -4.643
  C       -5.362     -12.395      -3.607
  O       -5.137     -11.565      -2.453
  C       -6.873     -12.491      -3.934
  N       -7.249     -13.774      -4.522
  C       -7.907     -14.681      -3.682
  O       -8.145     -14.389      -2.511
  N       -8.248     -15.916      -4.177
  C       -7.942     -16.226      -5.398
  N       -8.260     -17.480      -5.825
  C       -7.265     -15.297      -6.323
  C       -6.946     -14.104      -5.825
  O       -8.047      -9.871      -8.767
  O       -5.567      -9.492      -9.403
  H       -4.173     -11.454      -2.366
  H       -5.613      -8.669      -8.857
  H       -7.026     -15.609      -7.328
  H       -6.432     -13.373      -6.438
  H       -7.476     -12.324      -3.034
  H       -4.878     -13.357      -3.416
  H       -4.807     -12.415      -5.671
  H       -5.912      -9.877      -4.303
  H       -8.684     -18.103      -5.151
  H       -6.772      -9.292      -6.527
  H       -7.818     -17.886      -6.642
  H       -4.998      -9.442      -6.538
  P       -2.265     -12.022      -4.919
  C       -1.308     -13.127      -7.075
  O       -2.451     -12.653      -6.382
  O       -2.489     -13.264      -3.940
  O       -0.945     -11.351      -4.706
  H       -2.032     -13.127      -3.087
  H       -1.603     -13.513      -8.028
  H       -0.841     -13.903      -6.505
  H       -0.617     -12.322      -7.215

 6  7  8  9  10  11  12  13  14  15  16  26  30  31  32  33  35 0
 6-311+G(2d,p)
 ****
 37  38 0
 6-311+G(2d,p)
 ****
 1  2  3  4  5  17  18  19  20  21  22  23  24  25 0
 3-21G
 ****
 27  28  29  34  36  39  40  41  42  43  44  45  46 0
 3-21G
 ****


