%nproc=1
%NoSave
%Mem=1900MB
#P OB98/GEN NMR

erre ene a

0 1
  C       86.562     265.511    -722.713
  O       85.778     266.696    -722.566
  P       84.223     266.624    -722.933
  C       83.278     267.208    -720.528
  O       83.376     267.506    -721.903
  C       82.929     268.504    -719.758
  O       84.092     269.359    -719.661
  C       81.805     269.319    -720.418
  O       80.529     268.876    -720.025
  C       82.150     270.722    -719.965
  O       81.724     270.923    -718.601
  C       83.699     270.708    -720.037
  N       84.324     271.037    -721.348
  C       84.321     272.354    -721.813
  O       83.811     273.290    -721.207
  N       84.950     272.557    -723.018
  C       85.697     271.666    -723.709
  O       86.285     271.919    -724.754
  C       85.805     270.333    -723.099
  C       85.118     270.069    -721.981
  O       83.810     265.119    -722.563
  O       83.901     266.960    -724.370
  H       81.939     271.842    -718.367
  H       83.547     264.624    -723.375
  H       84.886     273.488    -723.396
  H       86.436     269.594    -723.587
  H       85.187     269.086    -721.516
  H       84.133     271.401    -719.311
  H       81.631     271.466    -720.561
  H       81.914     269.282    -721.507
  H       82.632     268.225    -718.738
  H       84.227     266.786    -720.152
  H       82.509     266.457    -720.369
  P       79.223     269.432    -720.756
  C       78.559     267.151    -721.726
  O       78.199     268.205    -720.841
  O       79.462     270.166    -722.055
  O       78.537     270.389    -719.656
  H       78.805     271.328    -719.800
  H       77.873     266.309    -721.562
  H       79.583     266.805    -721.525
  H       78.479     267.479    -722.764
  H       87.574     265.716    -722.431
  H       86.534     265.189    -723.733
  H       86.166     264.741    -722.085

 3  4  5  6  7  8  9  10  11  12  13  23  28  29  30  31  32 0
 6-311+G(2d,p)
 ****
 33  34 0
 6-311+G(2d,p)
 ****
 1  2  14  15  16  17  18  19  20  21  22  24  25  26  27 0
 3-21G
 ****
 35  36  37  38  39  40  41  42  43  44  45 0
 3-21G
 ****


