%nproc=1
%NoSave
%Mem=1900MB
#P OB98/GEN NMR

erre ene a

0 1
  C     -112.844     -18.835    -158.530
  O     -111.659     -19.380    -159.076
  H     -113.299     -19.576    -157.868
  H     -113.551     -18.596    -159.329
  H     -112.616     -17.936    -157.952
  P     -110.851     -18.449    -160.104
  C     -108.344     -17.956    -160.546
  O     -109.300     -18.601    -159.719
  C     -107.184     -17.427    -159.708
  O     -107.603     -16.295    -158.914
  C     -106.593     -18.444    -158.738
  O     -105.664     -19.294    -159.390
  C     -105.936     -17.531    -157.714
  O     -104.652     -17.060    -158.172
  C     -106.942     -16.375    -157.622
  N     -107.621     -16.487    -152.621
  C     -106.483     -16.242    -153.361
  N     -105.344     -16.049    -152.660
  N     -106.459     -16.199    -154.666
  C     -107.664     -16.442    -155.230
  C     -108.868     -16.681    -154.607
  C     -108.885     -16.694    -153.160
  O     -109.872     -16.841    -152.446
  N     -109.873     -16.863    -155.521
  C     -109.273     -16.773    -156.692
  N     -107.929     -16.535    -156.568
  O     -111.203     -16.963    -159.617
  O     -111.181     -18.648    -161.543
  H     -104.016     -17.795    -158.152
  H     -111.193     -16.365    -160.387
  H     -107.580     -16.489    -151.618
  H     -109.764     -16.873    -157.650
  H     -106.449     -15.412    -157.450
  H     -105.759     -18.047    -156.769
  H     -105.238     -16.393    -151.715
  H     -107.387     -19.025    -158.253
  H     -104.499     -15.891    -153.196
  H     -106.414     -17.068    -160.403
  H     -108.826     -17.118    -161.060
  H     -107.975     -18.668    -161.292
  P     -105.055     -20.519    -158.549
  C     -104.650     -23.042    -159.039
  O     -105.294     -21.837    -159.432
  O     -106.094     -20.691    -157.344
  O     -103.661     -20.309    -158.064
  H     -105.690     -21.217    -156.628
  H     -104.907     -23.823    -159.723
  H     -104.968     -23.312    -158.054
  H     -103.590     -22.898    -159.044

 6  7  8  9  10  11  12  13  14  15  26  29  33  34 0
 6-311+G(2d,p)
 ****
 36  38  39  40  41 0
 6-311+G(2d,p)
 ****
 1  2  3  4  5  16  17  18  19  20  21  22  23  24  25 0
 3-21G
 ****
 27  28  30  31  32  35  37  42  43  44  45  46  47 0
 3-21G
 ****
 48  49 0
 3-21G
 ****


