%nproc=1
%NoSave
%Mem=1900MB
#P OB98/GEN NMR

erre ene a

0 1
  C      458.899    -216.602    -399.315
  O      458.851    -218.009    -399.621
  P      459.656    -219.007    -398.653
  C      461.960    -218.208    -399.542
  O      461.063    -219.295    -399.393
  C      463.399    -218.662    -399.266
  O      463.549    -218.994    -397.883
  C      463.795    -219.945    -400.035
  O      464.176    -219.665    -401.381
  C      465.010    -220.412    -399.202
  O      466.166    -219.679    -399.626
  C      464.599    -220.001    -397.776
  N      465.630    -223.429    -394.184
  C      466.435    -222.448    -394.708
  N      467.688    -222.334    -394.216
  N      466.043    -221.638    -395.669
  C      464.763    -221.837    -396.052
  C      463.884    -222.795    -395.616
  C      464.339    -223.714    -394.585
  O      463.700    -224.646    -394.138
  N      462.653    -222.661    -396.226
  C      462.789    -221.614    -397.036
  N      464.082    -221.111    -396.987
  O      458.846    -220.368    -398.815
  O      459.752    -218.579    -397.222
  H      466.454    -220.079    -400.482
  H      458.979    -220.938    -398.009
  H      465.973    -224.017    -393.441
  H      462.011    -221.213    -397.654
  H      465.443    -219.552    -397.240
  H      465.216    -221.468    -399.333
  H      467.989    -222.840    -393.390
  H      463.017    -220.720    -399.963
  H      468.271    -221.587    -394.558
  H      464.084    -217.854    -399.526
  H      461.705    -217.416    -398.807
  H      461.886    -217.796    -400.535
  P      463.164    -220.234    -402.515
  C      463.720    -222.749    -402.130
  O      463.834    -221.621    -402.977
  O      463.419    -219.232    -403.742
  O      461.728    -220.295    -402.103
  H      462.651    -219.215    -404.316
  H      462.742    -222.789    -401.635
  H      464.516    -222.753    -401.392
  H      463.818    -223.661    -402.755
  H      458.323    -216.060    -400.036
  H      459.914    -216.265    -399.343
  H      458.495    -216.435    -398.338

 3  4  5  6  7  8  9  10  11  12  23  26  30  31  33  0
 6-311+G(2d,p)
 ****
 35  36  37  38 0
 6-311+G(2d,p)
 ****
 1  2  13  14  15  16  17  18  19  20  21  22  24  25  27  28  29 0
 3-21G
 ****
 32  34  39  40  41  42  43  44  45  46  47  48  49 0
 3-21G
 ****


