%nproc=1
%NoSave
%Mem=1900MB
#P OB98/GEN NMR

erre ene a

0 1
  C      427.850    -128.657    -240.747
  O      428.998    -127.835    -240.769
  H      427.815    -129.229    -241.676
  H      426.942    -128.052    -240.670
  H      427.902    -129.359    -239.909
  P      429.224    -126.806    -239.561
  C      430.163    -128.442    -237.791
  O      429.064    -127.645    -238.204
  C      430.605    -128.071    -236.367
  O      429.574    -128.489    -235.432
  C      431.918    -128.749    -235.927
  O      432.561    -127.864    -235.000
  C      431.398    -129.984    -235.218
  O      432.396    -130.593    -234.447
  C      430.188    -129.396    -234.485
  N      429.259    -130.412    -234.017
  C      429.285    -130.682    -232.643
  O      430.066    -130.081    -231.903
  N      428.440    -131.645    -232.147
  C      427.698    -132.329    -232.959
  N      426.894    -133.280    -232.407
  C      427.687    -132.113    -234.425
  C      428.485    -131.145    -234.876
  O      428.421    -125.548    -239.621
  O      430.794    -126.492    -239.607
  H      432.761    -129.969    -233.782
  H      430.943    -125.601    -239.979
  H      427.059    -132.722    -235.059
  H      428.548    -130.916    -235.933
  H      430.514    -128.791    -233.620
  H      431.060    -130.732    -235.948
  H      432.585    -128.966    -236.769
  H      430.678    -126.984    -236.295
  H      426.938    -133.396    -231.401
  H      430.983    -128.264    -238.495
  H      426.291    -133.886    -232.941
  H      429.894    -129.506    -237.824
  P      433.643    -126.767    -235.450
  C      431.917    -124.852    -235.564
  O      432.906    -125.604    -236.265
  O      434.835    -127.340    -236.144
  O      434.088    -126.043    -234.085
  H      435.016    -125.748    -234.167
  H      431.503    -124.111    -236.216
  H      432.366    -124.373    -234.719
  H      431.140    -125.508    -235.231

 6  7  8  9  10  11  12  13  14  15  16  26  30  31  32  33  35 0
 6-311+G(2d,p)
 ****
 37  38 0
 6-311+G(2d,p)
 ****
 1  2  3  4  5  17  18  19  20  21  22  23  24  25 0
 3-21G
 ****
 27  28  29  34  36  39  40  41  42  43  44  45  46 0
 3-21G
 ****


