%nproc=1
%NoSave
%Mem=1900MB
#P OB98/GEN NMR

erre ene a

0 1
  C      463.364    -396.330    -596.648
  O      462.893    -395.774    -597.842
  P      463.774    -394.729    -598.684
  C      461.746    -393.128    -598.854
  O      462.739    -393.876    -599.570
  C      461.330    -391.887    -599.666
  O      462.275    -390.831    -599.503
  C      461.205    -392.144    -601.164
  O      460.025    -392.856    -601.468
  C      461.255    -390.714    -601.711
  O      459.968    -390.090    -601.626
  C      462.255    -390.039    -600.713
  N      463.576    -389.895    -601.291
  C      463.711    -388.935    -602.317
  O      462.709    -388.303    -602.702
  N      464.946    -388.737    -602.917
  C      465.936    -389.466    -602.531
  N      467.137    -389.250    -603.148
  C      465.868    -390.507    -601.474
  C      464.655    -390.660    -600.918
  O      464.927    -395.322    -599.441
  O      464.231    -393.651    -597.568
  H      460.136    -389.127    -601.744
  H      464.943    -394.040    -596.983
  H      466.722    -391.086    -601.195
  H      464.501    -391.411    -600.108
  H      461.885    -389.033    -600.431
  H      461.601    -390.690    -602.749
  H      462.091    -392.710    -601.502
  H      460.350    -391.553    -599.258
  H      467.141    -388.556    -603.891
  H      462.209    -392.799    -597.922
  H      467.983    -389.781    -602.956
  H      460.907    -393.774    -598.629
  P      460.113    -394.329    -602.080
  C      460.133    -393.142    -604.370
  O      459.635    -394.258    -603.613
  O      459.442    -395.406    -601.276
  O      461.697    -394.612    -602.203
  H      461.883    -395.499    -601.891
  H      460.008    -393.366    -605.437
  H      461.172    -392.940    -604.147
  H      459.514    -392.244    -604.131
  H      462.627    -396.996    -596.250
  H      463.557    -395.549    -595.943
  H      464.268    -396.870    -596.838

 3  4  5  6  7  8  9  10  11  12  13  23  27  28  29  30  32 0
 6-311+G(2d,p)
 ****
 34  35 0
 6-311+G(2d,p)
 ****
 1  2  14  15  16  17  18  19  20  21  22  24  25  26 0
 3-21G
 ****
 31  33  36  37  38  39  40  41  42  43  44  45  46 0
 3-21G
 ****


