%nproc=1
%NoSave
%Mem=1900MB
#P OB98/GEN NMR

erre ene a

0 1
  C     -175.346     758.103    -349.399
  O     -175.135     759.390    -348.855
  P     -174.213     760.456    -349.615
  C     -176.225     761.860    -350.407
  O     -175.123     761.044    -350.797
  C     -176.110     763.260    -351.012
  O     -175.001     763.976    -350.425
  C     -175.859     763.268    -352.514
  O     -177.059     762.994    -353.215
  C     -175.317     764.676    -352.710
  O     -176.378     765.638    -352.804
  C     -174.495     764.890    -351.420
  N     -173.067     764.723    -351.633
  C     -172.455     765.684    -352.443
  O     -173.120     766.585    -352.952
  N     -171.107     765.583    -352.690
  C     -170.437     764.576    -352.198
  N     -169.110     764.523    -352.491
  C     -171.054     763.529    -351.370
  C     -172.358     763.656    -351.132
  O     -172.869     759.959    -350.026
  O     -174.146     761.680    -348.578
  H     -175.965     766.475    -353.090
  H     -173.554     761.471    -347.813
  H     -170.460     762.710    -350.989
  H     -172.889     762.927    -350.533
  H     -174.666     765.904    -351.019
  H     -174.723     764.763    -353.625
  H     -175.086     762.536    -352.765
  H     -177.030     763.810    -350.777
  H     -168.731     765.245    -353.088
  H     -176.223     761.937    -349.313
  H     -168.510     763.774    -352.190
  H     -177.160     761.381    -350.715
  P     -176.995     762.355    -354.685
  C     -176.887     759.970    -353.748
  O     -176.263     760.937    -354.569
  O     -176.469     763.257    -355.752
  O     -178.513     761.953    -354.980
  H     -178.740     762.219    -355.893
  H     -176.499     758.981    -354.008
  H     -177.973     759.973    -353.894
  H     -176.658     760.175    -352.698
  H     -175.985     757.542    -348.750
  H     -174.407     757.599    -349.498
  H     -175.805     758.193    -350.361

 3  4  5  6  7  8  9  10  11  12  13  23  27  28  29  30  32 0
 6-311+G(2d,p)
 ****
 34  35 0
 6-311+G(2d,p)
 ****
 1  2  14  15  16  17  18  19  20  21  22  24  25  26 0
 3-21G
 ****
 31  33  36  37  38  39  40  41  42  43  44  45  46 0
 3-21G
 ****


