%nproc=1
%NoSave
%Mem=1900MB
#P OB98/GEN NMR

erre ene a

0 1
  C      112.266     -66.485      -4.498
  O      113.514     -65.794      -4.414
  P      114.712     -66.439      -3.571
  C      114.239     -65.168      -1.378
  O      114.317     -66.433      -2.015
  C      114.172     -65.322       0.150
  O      114.387     -64.031       0.783
  C      112.824     -65.869       0.639
  O      112.958     -66.984       1.520
  C      112.133     -64.646       1.216
  O      111.137     -64.972       2.173
  C      113.309     -63.793       1.705
  N      112.957     -62.372       1.792
  C      112.331     -61.954       2.959
  O      112.004     -62.725       3.861
  N      112.034     -60.619       3.037
  C      112.224     -59.700       2.047
  O      111.897     -58.525       2.147
  C      112.832     -60.213       0.810
  C      113.164     -61.504       0.741
  O      116.077     -65.919      -3.878
  O      114.608     -68.000      -3.942
  H      111.563     -65.466       2.908
  H      115.516     -68.350      -4.024
  H      111.595     -60.297       3.886
  H      112.977     -59.518      -0.004
  H      113.600     -61.911      -0.162
  H      113.633     -64.108       2.703
  H      111.632     -64.115       0.396
  H      112.228     -66.262      -0.193
  H      114.986     -65.992       0.445
  H      113.345     -64.644      -1.719
  H      115.091     -64.552      -1.687
  P      112.272     -68.410       1.289
  C      110.273     -68.166       2.921
  O      110.705     -68.267       1.578
  O      112.932     -69.566       1.961
  O      112.338     -68.587      -0.303
  H      112.559     -69.514      -0.514
  H      109.218     -68.445       2.970
  H      110.380     -67.132       3.261
  H      110.846     -68.829       3.574
  H      111.583     -65.917      -5.095
  H      111.861     -66.611      -3.516
  H      112.419     -67.444      -4.946

 3  4  5  6  7  8  9  10  11  12  13  23  28  29  30  31  32 0
 6-311+G(2d,p)
 ****
 33  34 0
 6-311+G(2d,p)
 ****
 1  2  14  15  16  17  18  19  20  21  22  24  25  26  27 0
 3-21G
 ****
 35  36  37  38  39  40  41  42  43  44  45 0
 3-21G
 ****


