%nproc=1
%NoSave
%Mem=1900MB
#P OB98/GEN NMR

erre ene a

0 1
  C     -410.772    -920.675     112.330
  O     -411.921    -921.419     111.934
  P     -413.368    -920.834     112.310
  C     -414.284    -920.766     109.819
  O     -414.412    -921.203     111.152
  C     -415.338    -921.470     108.943
  O     -415.033    -922.879     108.841
  C     -416.750    -921.368     109.502
  O     -417.400    -920.152     109.073
  C     -417.410    -922.622     108.961
  O     -417.752    -922.449     107.559
  C     -416.257    -923.635     109.117
  N     -416.107    -924.328     110.413
  C     -416.750    -925.537     110.646
  O     -417.475    -926.105     109.821
  N     -416.544    -926.121     111.877
  C     -415.638    -925.711     112.810
  O     -415.453    -926.298     113.864
  C     -414.864    -924.506     112.457
  C     -415.134    -923.881     111.305
  O     -413.195    -919.257     112.168
  O     -413.853    -921.238     113.662
  H     -416.920    -922.314     107.096
  H     -413.309    -918.834     113.036
  H     -417.064    -926.953     112.071
  H     -414.101    -924.185     113.157
  H     -414.559    -922.986     111.047
  H     -416.338    -924.424     108.347
  H     -418.335    -922.848     109.479
  H     -416.749    -921.424     110.592
  H     -415.312    -921.045     107.928
  H     -413.284    -920.970     109.425
  H     -414.431    -919.677     109.779
  P     -418.034    -919.165     110.160
  C     -416.649    -917.279     109.100
  O     -417.934    -917.694     109.514
  O     -417.520    -919.308     111.550
  O     -419.607    -919.478     110.085
  H     -419.884    -920.112     110.768
  H     -416.732    -916.360     108.544
  H     -416.175    -918.045     108.476
  H     -416.012    -917.115     109.991
  H     -409.888    -921.187     112.011
  H     -410.762    -920.575     113.395
  H     -410.803    -919.704     111.881

 3  4  5  6  7  8  9  10  11  12  13  23  28  29  30  31  32 0
 6-311+G(2d,p)
 ****
 33  34 0
 6-311+G(2d,p)
 ****
 1  2  14  15  16  17  18  19  20  21  22  24  25  26  27 0
 3-21G
 ****
 35  36  37  38  39  40  41  42  43  44  45 0
 3-21G
 ****


