%nproc=1
%NoSave
%Mem=1900MB
#P OB98/GEN NMR

erre ene a

0 1
  C     -605.702     278.840     182.562
  O     -605.219     278.243     181.342
  P     -603.732     278.498     180.804
  C     -604.429     280.096     178.908
  O     -603.809     278.855     179.237
  C     -603.902     280.656     177.576
  O     -602.553     281.127     177.701
  C     -603.898     279.627     176.442
  O     -605.198     279.472     175.900
  C     -602.881     280.275     175.490
  O     -603.502     281.300     174.699
  C     -601.870     280.875     176.462
  N     -597.132     279.773     174.876
  C     -598.032     280.703     174.469
  N     -599.264     280.940     174.942
  C     -599.557     280.096     175.946
  C     -598.741     279.101     176.468
  C     -597.473     278.951     175.890
  N     -596.564     278.001     176.286
  N     -599.391     278.429     177.503
  C     -600.557     279.024     177.602
  N     -600.704     280.033     176.687
  O     -602.765     277.402     181.135
  O     -603.279     279.873     181.480
  H     -602.787     281.774     174.220
  H     -602.310     279.891     181.587
  H     -597.706     281.351     173.651
  H     -601.333     278.762     178.319
  H     -601.504     281.848     176.117
  H     -602.446     279.549     174.793
  H     -603.507     278.684     176.800
  H     -604.532     281.512     177.314
  H     -604.206     280.818     179.711
  H     -595.694     277.931     175.800
  H     -596.828     277.347     177.018
  H     -605.508     279.954     178.853
  P     -606.173     278.350     176.500
  C     -604.799     276.495     175.403
  O     -606.074     277.072     175.528
  O     -607.557     278.814     176.810
  O     -605.415     277.855     177.833
  H     -606.073     277.559     178.481
  H     -604.203     277.072     174.686
  H     -604.903     275.472     175.031
  H     -604.276     276.457     176.367
  H     -606.714     278.538     182.731
  H     -605.657     279.906     182.480
  H     -605.093     278.520     183.381

 3  4  5  6  7  8  9  10  11  12  22  25  29  30  31  32 0
 6-311+G(2d,p)
 ****
 33  36  37 0
 6-311+G(2d,p)
 ****
 1  2  13  14  15  16  17  18  19  20  21  23  24  26 0
 3-21G
 ****
 27  28  34  35  38  39  40  41  42  43  44  45  46  47  48 0
 3-21G
 ****


