%nproc=1
%NoSave
%Mem=1900MB
#P OB98/GEN NMR

erre ene a

0 1
  C      223.370     167.491    1643.162
  O      223.993     168.328    1644.119
  H      222.289     167.492    1643.355
  H      223.740     166.470    1643.245
  H      223.535     167.879    1642.152
  P      225.593     168.422    1644.126
  C      225.662     170.560    1642.676
  O      226.019     169.187    1642.783
  C      226.558     171.272    1641.656
  O      227.921     171.281    1642.150
  C      226.581     170.592    1640.275
  O      226.812     171.631    1639.297
  C      227.812     169.705    1640.393
  O      228.227     169.225    1639.143
  C      228.750     170.637    1641.169
  N      229.874     169.922    1641.775
  C      231.142     170.282    1641.322
  O      231.275     171.144    1640.443
  N      232.234     169.627    1641.836
  C      232.060     168.669    1642.687
  N      233.178     168.044    1643.154
  C      230.735     168.217    1643.149
  C      229.678     168.893    1642.660
  O      226.313     167.131    1644.366
  O      225.915     169.488    1645.276
  H      227.522     168.676    1638.735
  H      226.247     169.030    1646.072
  H      230.634     167.387    1643.843
  H      228.668     168.632    1642.925
  H      229.147     171.422    1640.510
  H      227.566     168.812    1641.004
  H      225.658     170.058    1640.034
  H      226.244     172.329    1641.571
  H      234.077     168.378    1642.808
  H      225.783     171.021    1643.663
  H      233.170     167.272    1643.798
  H      224.605     170.656    1642.374
  P      225.816     171.912    1638.083
  C      224.940     173.979    1639.362
  O      224.602     172.833    1638.596
  O      225.373     170.676    1637.341
  O      226.612     172.896    1637.098
  H      226.311     172.723    1636.182
  H      224.047     174.500    1639.638
  H      225.565     174.625    1638.781
  H      225.463     173.676    1640.245

 6  7  8  9  10  11  12  13  14  15  16  26  30  31  32  33  35 0
 6-311+G(2d,p)
 ****
 37  38 0
 6-311+G(2d,p)
 ****
 1  2  3  4  5  17  18  19  20  21  22  23  24  25 0
 3-21G
 ****
 27  28  29  34  36  39  40  41  42  43  44  45  46 0
 3-21G
 ****


