%nproc=1
%NoSave
%Mem=1900MB
#P OB98/GEN NMR

erre ene a

0 1
  C     -788.864     131.929    -634.309
  O     -790.129     132.255    -633.719
  P     -790.875     131.111    -632.875
  C     -791.437     132.602    -630.818
  O     -790.736     131.465    -631.310
  C     -791.596     132.539    -629.287
  O     -792.519     131.464    -628.918
  C     -790.289     132.271    -628.535
  O     -790.363     132.903    -627.260
  C     -790.316     130.772    -628.345
  O     -789.414     130.351    -627.312
  C     -791.799     130.557    -628.057
  N     -790.873     125.721    -626.932
  C     -790.220     126.874    -626.533
  N     -789.181     126.713    -625.675
  N     -790.543     128.076    -626.931
  C     -791.624     128.085    -627.749
  C     -792.350     127.016    -628.231
  C     -791.950     125.685    -627.792
  O     -792.487     124.641    -628.130
  N     -793.362     127.423    -629.072
  C     -793.231     128.739    -629.114
  N     -792.218     129.186    -628.299
  O     -789.901     129.854    -633.055
  O     -792.258     130.813    -633.347
  H     -788.505     130.616    -627.588
  H     -790.332     129.196    -633.636
  H     -790.560     124.820    -626.595
  H     -793.836     129.401    -629.698
  H     -792.063     130.786    -627.013
  H     -790.018     130.268    -629.276
  H     -788.912     125.825    -625.284
  H     -789.391     132.615    -629.055
  H     -788.709     127.533    -625.343
  H     -792.043     133.489    -628.942
  H     -792.420     132.672    -631.286
  H     -790.898     133.508    -631.121
  P     -789.272     134.025    -626.933
  C     -791.068     135.898    -626.885
  O     -789.883     135.414    -627.468
  O     -788.088     133.722    -627.954
  O     -788.795     134.043    -625.507
  H     -787.252     134.054    -627.617
  H     -790.828     136.715    -626.199
  H     -791.612     135.118    -626.335
  H     -791.732     136.289    -627.675
  H     -788.487     132.780    -634.837
  H     -788.988     131.113    -634.990
  H     -788.173     131.651    -633.541

 3  4  5  6  7  8  9  10  11  12  23  26  30  31 0
 6-311+G(2d,p)
 ****
 33  35  36  37  38 0
 6-311+G(2d,p)
 ****
 1  2  13  14  15  16  17  18  19  20  21  22  24  25 0
 3-21G
 ****
 27  28  29  32  34  39  40  41  42  43  44  45  46  47  48  49 0
 3-21G
 ****


