%nproc=1
%NoSave
%Mem=1900MB
#P OB98/GEN NMR

erre ene a

0 1
  C     -505.022     318.079      77.934
  O     -505.520     319.097      78.788
  H     -505.681     318.001      77.066
  H     -505.021     317.123      78.460
  H     -504.013     318.311      77.583
  P     -504.585     319.620      79.984
  C     -504.972     317.300      81.042
  O     -504.938     318.699      81.257
  C     -504.778     316.541      82.366
  O     -503.486     316.885      82.922
  C     -505.844     316.862      83.420
  O     -506.021     315.682      84.230
  C     -505.157     317.944      84.232
  O     -505.757     318.129      85.494
  C     -503.711     317.421      84.237
  N     -502.749     318.468      84.590
  C     -502.088     318.327      85.813
  O     -502.319     317.402      86.596
  N     -501.199     319.302      86.129
  C     -500.936     320.426      85.387
  O     -500.150     321.294      85.736
  C     -501.686     320.539      84.133
  C     -502.549     319.569      83.789
  O     -504.633     321.086      80.243
  O     -503.115     319.125      79.589
  H     -506.627     318.566      85.399
  H     -502.452     319.747      79.947
  H     -500.709     319.209      87.003
  H     -501.515     321.421      83.524
  H     -503.104     319.628      82.865
  H     -503.607     316.603      84.961
  H     -505.207     318.912      83.703
  H     -506.795     317.181      82.992
  H     -504.755     315.464      82.147
  H     -504.166     317.040      80.345
  H     -505.930     317.032      80.590
  P     -506.808     314.398      83.687
  C     -509.076     315.135      84.649
  O     -508.074     314.123      84.641
  O     -505.928     313.196      83.467
  O     -507.469     314.860      82.304
  H     -507.576     314.102      81.708
  H     -509.865     314.850      85.313
  H     -509.468     315.257      83.661
  H     -508.648     316.058      84.980

 6  7  8  9  10  11  12  13  14  15  16  26  31  32  33  34  35 0
 6-311+G(2d,p)
 ****
 36  37 0
 6-311+G(2d,p)
 ****
 1  2  3  4  5  17  18  19  20  21  22  23  24  25 0
 3-21G
 ****
 27  28  29  30  38  39  40  41  42  43  44  45 0
 3-21G
 ****


