%nproc=1
%NoSave
%Mem=1900MB
#P OB98/GEN NMR

erre ene a

0 1
  C      322.021     463.572    -460.874
  O      321.353     462.613    -460.083
  P      321.819     461.079    -460.123
  C      323.977     461.523    -458.781
  O      322.730     460.813    -458.823
  C      325.030     460.686    -458.062
  O      324.813     460.714    -456.637
  C      325.029     459.212    -458.447
  O      325.642     459.017    -459.713
  C      325.791     458.602    -457.276
  O      327.206     458.743    -457.461
  C      325.311     459.463    -456.100
  N      322.676     459.721    -451.738
  C      323.751     460.412    -452.193
  N      324.419     460.265    -453.355
  C      323.896     459.256    -454.071
  C      322.825     458.425    -453.728
  C      322.183     458.708    -452.501
  N      321.061     458.050    -452.062
  N      322.609     457.487    -454.708
  C      323.526     457.725    -455.626
  N      324.284     458.823    -455.306
  O      322.415     460.620    -461.417
  O      320.485     460.266    -459.790
  H      327.393     459.689    -457.604
  H      320.268     459.676    -460.538
  H      324.101     461.198    -451.534
  H      323.678     457.147    -456.533
  H      326.128     459.719    -455.423
  H      325.584     457.531    -457.155
  H      324.007     458.826    -458.449
  H      326.016     461.131    -458.259
  H      323.827     462.468    -458.254
  H      320.596     458.423    -451.250
  H      320.510     457.519    -452.743
  H      324.301     461.737    -459.810
  P      325.429     457.638    -460.488
  C      324.124     458.567    -462.493
  O      325.341     457.999    -462.050
  O      324.336     456.763    -459.977
  O      326.859     456.918    -460.378
  H      326.728     455.950    -460.358
  H      323.359     457.790    -462.608
  H      324.284     459.043    -463.472
  H      323.769     459.331    -461.789
  H      321.577     464.533    -460.720
  H      321.939     463.303    -461.906
  H      323.054     463.607    -460.596

 3  4  5  6  7  8  9  10  11  12  22  25  29  30  31  32 0
 6-311+G(2d,p)
 ****
 33  36  37 0
 6-311+G(2d,p)
 ****
 1  2  13  14  15  16  17  18  19  20  21  23  24  26 0
 3-21G
 ****
 27  28  34  35  38  39  40  41  42  43  44  45  46  47  48 0
 3-21G
 ****


