%nproc=1
%NoSave
%Mem=1900MB
#P OB98/GEN NMR

erre ene a

0 1
  C     -160.832     346.804    -286.890
  O     -161.598     347.413    -285.869
  H     -160.147     347.549    -287.309
  H     -161.471     346.434    -287.699
  H     -160.247     345.977    -286.479
  P     -162.787     346.563    -285.209
  C     -161.184     345.600    -283.422
  O     -162.084     345.318    -284.489
  C     -161.361     344.583    -282.302
  O     -162.665     344.734    -281.691
  C     -161.307     343.137    -282.789
  O     -159.966     342.756    -283.046
  C     -161.982     342.418    -281.640
  O     -161.090     342.227    -280.536
  C     -163.107     343.419    -281.269
  N     -164.390     343.076    -281.874
  C     -165.068     341.997    -281.304
  O     -164.594     341.400    -280.341
  N     -166.269     341.612    -281.845
  C     -166.751     342.254    -282.862
  N     -167.942     341.828    -283.367
  C     -166.073     343.409    -283.494
  C     -164.903     343.756    -282.952
  O     -163.937     346.197    -286.105
  O     -163.257     347.477    -283.978
  H     -160.539     341.452    -280.770
  H     -163.960     348.095    -284.258
  H     -166.515     343.915    -284.339
  H     -164.346     344.592    -283.355
  H     -163.239     343.462    -280.176
  H     -162.357     341.443    -281.941
  H     -161.921     343.019    -283.683
  H     -160.610     344.774    -281.531
  H     -168.370     341.027    -282.909
  H     -161.423     346.606    -283.057
  H     -168.458     342.302    -284.095
  H     -160.144     345.597    -283.770
  P     -159.651     341.460    -283.934
  C     -160.058     342.733    -286.143
  O     -160.472     341.664    -285.295
  O     -159.853     340.148    -283.249
  O     -158.131     341.707    -284.399
  H     -157.501     341.541    -283.655
  H     -160.682     342.761    -287.012
  H     -159.041     342.580    -286.439
  H     -160.140     343.660    -285.615

 6  7  8  9  10  11  12  13  14  15  16  26  30  31  32  33  35 0
 6-311+G(2d,p)
 ****
 37  38 0
 6-311+G(2d,p)
 ****
 1  2  3  4  5  17  18  19  20  21  22  23  24  25 0
 3-21G
 ****
 27  28  29  34  36  39  40  41  42  43  44  45  46 0
 3-21G
 ****


