%nproc=1
%NoSave
%Mem=1900MB
#P OB98/GEN NMR

erre ene a

0 1
  C     -440.105     211.708    -393.397
  O     -439.155     211.683    -394.443
  H     -439.858     212.527    -392.716
  H     -440.068     210.767    -392.840
  H     -441.114     211.870    -393.789
  P     -439.513     210.782    -395.721
  C     -438.864     208.369    -396.437
  O     -439.049     209.281    -395.363
  C     -439.338     206.969    -396.035
  O     -438.443     206.392    -395.059
  C     -440.730     206.941    -395.400
  O     -441.751     206.922    -396.398
  C     -440.673     205.619    -394.662
  O     -440.845     204.526    -395.590
  C     -439.232     205.620    -394.116
  N     -440.064     204.956    -389.152
  C     -440.416     204.160    -390.222
  N     -441.098     203.025    -389.933
  N     -440.133     204.443    -391.473
  C     -439.475     205.622    -391.613
  C     -439.073     206.499    -390.628
  C     -439.378     206.156    -389.253
  O     -439.067     206.826    -388.266
  N     -438.421     207.589    -391.159
  C     -438.453     207.378    -392.465
  N     -439.081     206.196    -392.789
  O     -438.439     211.262    -396.810
  O     -440.904     210.922    -396.236
  H     -441.764     204.575    -395.924
  H     -438.875     211.862    -397.443
  H     -440.303     204.697    -388.207
  H     -438.029     208.038    -393.203
  H     -438.802     204.614    -394.072
  H     -441.455     205.519    -393.905
  H     -441.371     202.755    -388.996
  H     -440.873     207.762    -394.682
  H     -441.373     202.432    -390.698
  H     -439.308     206.325    -396.930
  H     -437.802     208.326    -396.700
  H     -439.439     208.724    -397.308
  P     -443.127     207.680    -396.068
  C     -445.399     206.741    -395.238
  O     -443.990     206.713    -395.113
  O     -443.907     207.612    -397.467
  O     -442.994     209.094    -395.593
  H     -443.972     208.507    -397.863
  H     -445.832     206.051    -394.544
  H     -445.674     206.465    -396.235
  H     -445.756     207.728    -395.030

 6  7  8  9  10  11  12  13  14  15  26  29  33  34 0
 6-311+G(2d,p)
 ****
 36  38  39  40  41 0
 6-311+G(2d,p)
 ****
 1  2  3  4  5  16  17  18  19  20  21  22  23  24  25 0
 3-21G
 ****
 27  28  30  31  32  35  37  42  43  44  45  46  47 0
 3-21G
 ****
 48  49 0
 3-21G
 ****


