%nproc=1
%NoSave
%Mem=1900MB
#P OB98/GEN NMR

erre ene a

0 1
  C       99.942      50.385     107.966
  O      100.552      51.164     108.985
  P       99.605      52.136     109.846
  C       99.706      54.682     109.341
  O       99.301      53.393     108.896
  C      101.026      55.083     108.690
  O      101.066      54.627     107.323
  C      101.270      56.583     108.629
  O      101.778      57.095     109.849
  C      102.330      56.659     107.541
  O      103.616      56.313     108.087
  C      101.862      55.575     106.563
  N      101.441      55.869     101.477
  C      102.392      55.334     102.271
  N      102.437      55.305     103.620
  C      101.378      55.944     104.145
  C      100.351      56.572     103.460
  C      100.399      56.511     102.058
  N       99.414      57.031     101.250
  N       99.446      57.121     104.341
  C       99.910      56.824     105.535
  N      101.071      56.105     105.470
  O      100.605      52.735     110.942
  O       98.420      51.477     110.464
  H      103.965      57.117     108.519
  H      100.102      53.038     111.722
  H      103.221      54.856     101.757
  H       99.438      57.098     106.469
  H      102.698      55.019     106.127
  H      102.425      57.660     107.108
  H      100.371      57.121     108.302
  H      101.837      54.583     109.236
  H       99.836      54.660     110.427
  H       99.427      56.787     100.273
  H       98.548      57.326     101.687
  H       98.924      55.406     109.096
  P      101.492      58.645     110.160
  C      103.685      60.002     109.846
  O      102.526      59.457     109.246
  O      102.058      58.827     111.644
  O      100.057      59.035     110.046
  H      101.608      59.568     112.092
  H      104.409      60.237     109.061
  H      104.142      59.291     110.541
  H      103.430      60.922     110.377
  H      100.686      49.790     107.478
  H       99.478      51.033     107.251
  H       99.202      49.746     108.401

 3  4  5  6  7  8  9  10  11  12  22  25  29  30  31  32 0
 6-311+G(2d,p)
 ****
 33  36  37 0
 6-311+G(2d,p)
 ****
 1  2  13  14  15  16  17  18  19  20  21  23  24  26 0
 3-21G
 ****
 27  28  34  35  38  39  40  41  42  43  44  45  46  47  48 0
 3-21G
 ****


