%nproc=1
%NoSave
%Mem=1900MB
#P OB98/GEN NMR

erre ene a

0 1
  C      -35.595      37.342    -352.379
  O      -34.725      37.460    -353.488
  P      -33.552      36.394    -353.712
  C      -33.179      36.580    -356.248
  O      -33.700      35.784    -355.188
  C      -33.930      36.299    -357.546
  O      -35.316      36.695    -357.434
  C      -33.399      37.061    -358.751
  O      -32.163      36.544    -359.204
  C      -34.560      36.916    -359.725
  O      -34.522      35.636    -360.374
  C      -35.774      37.000    -358.775
  N      -36.436      38.294    -358.830
  C      -36.897      38.696    -360.088
  O      -36.670      38.009    -361.085
  N      -37.601      39.871    -360.184
  C      -37.719      40.637    -359.143
  N      -38.476      41.757    -359.284
  C      -37.106      40.325    -357.835
  C      -36.504      39.138    -357.747
  O      -33.399      35.378    -352.627
  O      -32.231      37.293    -353.835
  H      -31.549      36.935    -353.231
  H      -35.320      35.586    -360.936
  H      -37.174      41.027    -357.020
  H      -36.042      38.815    -356.819
  H      -36.503      36.222    -359.024
  H      -34.543      37.678    -360.510
  H      -33.277      38.121    -358.487
  H      -33.898      35.217    -357.732
  H      -38.896      41.930    -360.188
  H      -32.119      36.342    -356.376
  H      -38.894      42.235    -358.488
  H      -33.262      37.641    -355.979
  P      -31.122      37.589    -359.832
  C      -29.229      37.103    -358.134
  O      -30.138      38.050    -358.656
  O      -32.022      38.887    -360.106
  O      -30.445      37.122    -361.081
  H      -31.724      39.324    -360.927
  H      -28.424      37.634    -357.619
  H      -28.796      36.485    -358.924
  H      -29.746      36.464    -357.410
  H      -36.308      38.140    -352.398
  H      -35.027      37.393    -351.473
  H      -36.108      36.404    -352.426

 3  4  5  6  7  8  9  10  11  12  13  24  27  28  29  30  32 0
 6-311+G(2d,p)
 ****
 34  35 0
 6-311+G(2d,p)
 ****
 1  2  14  15  16  17  18  19  20  21  22  23  25  26 0
 3-21G
 ****
 31  33  36  37  38  39  40  41  42  43  44  45  46 0
 3-21G
 ****


