%nproc=1
%NoSave
%Mem=1900MB
#P OB98/GEN NMR

erre ene a

0 1
  C      -96.150     199.182      41.297
  O      -95.135     199.066      42.277
  H      -95.682     199.233      40.309
  H      -96.737     200.093      41.448
  H      -96.809     198.310      41.330
  P      -95.562     199.131      43.822
  C      -96.829     200.842      45.293
  O      -96.360     200.509      43.990
  C      -97.071     202.345      45.394
  O      -95.829     203.062      45.248
  C      -97.990     202.880      44.303
  O      -99.339     202.553      44.576
  C      -97.652     204.357      44.345
  O      -98.329     205.018      45.422
  C      -96.126     204.319      44.593
  N      -95.351     204.466      43.366
  C      -95.310     205.753      42.817
  O      -95.899     206.683      43.364
  N      -94.618     205.941      41.645
  C      -94.008     204.945      41.084
  N      -93.341     205.200      39.925
  C      -94.014     203.577      41.636
  C      -94.701     203.411      42.767
  O      -94.477     198.919      44.831
  O      -96.716     198.027      43.939
  H      -97.970     205.928      45.443
  H      -96.335     197.157      44.160
  H      -93.488     202.779      41.137
  H      -94.755     202.437      43.241
  H      -95.828     205.115      45.287
  H      -97.934     204.857      43.420
  H      -97.685     202.489      43.328
  H      -97.471     202.565      46.393
  H      -93.372     206.152      39.575
  H      -96.055     200.535      46.003
  H      -92.761     204.527      39.449
  H      -97.749     200.295      45.525
  P     -100.241     201.829      43.465
  C     -100.975     202.445      41.069
  O     -100.457     202.924      42.309
  O     -101.485     201.183      43.977
  O      -99.222     200.794      42.788
  H      -99.044     200.022      43.379
  H     -101.074     203.261      40.385
  H     -101.933     201.998      41.232
  H     -100.306     201.716      40.661

 6  7  8  9  10  11  12  13  14  15  16  26  30  31  32  33  35 0
 6-311+G(2d,p)
 ****
 37  38 0
 6-311+G(2d,p)
 ****
 1  2  3  4  5  17  18  19  20  21  22  23  24  25 0
 3-21G
 ****
 27  28  29  34  36  39  40  41  42  43  44  45  46 0
 3-21G
 ****


