%nproc=1
%NoSave
%Mem=1900MB
#P OB98/GEN NMR

erre ene a

0 1
  C     -220.460    -511.684    -261.320
  O     -221.871    -511.756    -261.286
  H     -220.124    -511.877    -262.343
  H     -220.027    -512.440    -260.661
  H     -220.125    -510.689    -261.018
  P     -222.572    -511.562    -259.857
  C     -222.602    -512.883    -257.616
  O     -222.061    -512.763    -258.926
  C     -222.789    -514.355    -257.269
  O     -223.842    -514.922    -258.087
  C     -221.563    -515.218    -257.527
  O     -220.586    -515.085    -256.505
  C     -222.189    -516.605    -257.571
  O     -222.351    -517.149    -256.251
  C     -223.558    -516.331    -258.231
  N     -223.594    -516.759    -259.631
  C     -224.527    -517.749    -259.933
  O     -225.285    -518.240    -259.100
  N     -224.535    -518.177    -261.230
  C     -223.691    -517.755    -262.224
  O     -223.705    -518.235    -263.351
  C     -222.735    -516.704    -261.844
  C     -222.720    -516.267    -260.580
  O     -224.106    -511.931    -260.149
  O     -222.423    -510.200    -259.259
  H     -224.635    -511.117    -260.215
  H     -222.957    -517.909    -256.343
  H     -225.202    -518.900    -261.472
  H     -222.058    -516.342    -262.610
  H     -222.007    -515.505    -260.273
  H     -224.356    -516.866    -257.698
  H     -221.571    -517.311    -258.127
  H     -221.141    -514.991    -258.515
  H     -223.103    -514.428    -256.214
  H     -223.573    -512.378    -257.575
  H     -221.920    -512.398    -256.908
  P     -219.058    -515.422    -256.859
  C     -217.499    -517.432    -256.194
  O     -218.814    -516.945    -256.411
  O     -218.290    -514.560    -255.754
  O     -218.686    -515.115    -258.273
  H     -218.758    -514.524    -254.902
  H     -217.543    -518.461    -255.904
  H     -217.031    -516.862    -255.418
  H     -216.931    -517.340    -257.096

 6  7  8  9  10  11  12  13  14  15  16  27  31  32  33  34  35 0
 6-311+G(2d,p)
 ****
 36  37 0
 6-311+G(2d,p)
 ****
 1  2  3  4  5  17  18  19  20  21  22  23  24  25 0
 3-21G
 ****
 26  28  29  30  38  39  40  41  42  43  44  45 0
 3-21G
 ****


