%nproc=1
%NoSave
%Mem=1900MB
#P OB98/GEN NMR

erre ene a

0 1
  C      117.873       0.773     -69.589
  O      116.784       0.580     -68.698
  P      115.414       1.352     -69.025
  C      113.796      -0.676     -69.054
  O      114.503       0.296     -69.817
  C      113.556      -1.933     -69.880
  O      114.812      -2.455     -70.351
  C      112.901      -3.076     -69.118
  O      111.494      -2.910     -69.020
  C      113.252      -4.260     -70.006
  O      112.326      -4.333     -71.106
  C      114.656      -3.888     -70.511
  N      116.974      -8.304     -69.637
  C      115.906      -8.013     -70.463
  N      115.401      -9.042     -71.177
  N      115.380      -6.823     -70.576
  C      116.012      -5.885     -69.833
  C      117.078      -6.050     -68.976
  C      117.620      -7.384     -68.821
  O      118.522      -7.713     -68.057
  N      117.452      -4.859     -68.410
  C      116.642      -3.970     -68.949
  N      115.730      -4.549     -69.796
  O      115.847       2.390     -70.164
  O      114.777       2.034     -67.863
  H      111.484      -4.671     -70.749
  H      115.241       3.156     -70.163
  H      117.352      -9.235     -69.601
  H      116.681      -2.908     -68.755
  H      114.765      -4.104     -71.579
  H      113.199      -5.219     -69.480
  H      115.844      -9.946     -71.232
  H      113.359      -3.206     -68.131
  H      114.642      -8.841     -71.815
  H      112.953      -1.657     -70.755
  H      112.830      -0.261     -68.748
  H      114.377      -0.910     -68.156
  P      110.911      -2.565     -67.562
  C      110.489      -0.066     -68.134
  O      111.203      -1.005     -67.352
  O      111.940      -3.289     -66.575
  O      109.506      -3.012     -67.342
  H      111.503      -3.502     -65.729
  H      109.459      -0.392     -68.308
  H      110.996       0.068     -69.093
  H      110.468       0.890     -67.606
  H      118.714       0.204     -69.253
  H      118.132       1.811     -69.616
  H      117.593       0.450     -70.570

 3  4  5  6  7  8  9  10  11  12  23  26  30  31  33  0
 6-311+G(2d,p)
 ****
 35  36  37  38 0
 6-311+G(2d,p)
 ****
 1  2  13  14  15  16  17  18  19  20  21  22  24  25  27  28  29 0
 3-21G
 ****
 32  34  39  40  41  42  43  44  45  46  47  48  49 0
 3-21G
 ****


