%nproc=1
%NoSave
%Mem=1900MB
#P OB98/GEN NMR

erre ene a

0 1
  C     -102.592    -162.896     359.448
  O     -101.426    -162.073     359.537
  P     -100.138    -162.739     360.229
  C      -99.413    -160.370     361.006
  O      -99.023    -161.596     360.412
  C      -98.551    -159.217     360.495
  O      -97.180    -159.304     360.969
  C      -98.458    -159.149     358.981
  O      -99.624    -158.546     358.453
  C      -97.202    -158.306     358.777
  O      -97.503    -156.899     358.860
  C      -96.318    -158.749     359.946
  N      -92.410    -159.796     356.878
  C      -93.330    -158.765     356.818
  N      -93.176    -157.878     355.820
  N      -94.312    -158.624     357.670
  C      -94.353    -159.585     358.625
  C      -93.487    -160.644     358.802
  C      -92.400    -160.793     357.843
  O      -91.546    -161.672     357.862
  N      -93.803    -161.371     359.913
  C      -94.936    -160.836     360.332
  N      -95.277    -159.706     359.623
  O      -99.546    -163.677     359.077
  O     -100.465    -163.519     361.456
  H      -97.901    -156.716     359.727
  H      -99.681    -164.619     359.308
  H      -91.689    -159.867     356.184
  H      -95.529    -161.205     361.157
  H      -95.804    -157.888     360.402
  H      -96.760    -158.479     357.789
  H      -92.434    -157.923     355.122
  H      -98.316    -160.157     358.565
  H      -93.832    -157.104     355.766
  H      -98.971    -158.282     360.894
  H      -99.327    -160.436     362.097
  H     -100.474    -160.187     360.788
  P      -99.932    -158.726     356.891
  C     -101.237    -156.496     356.599
  O     -101.276    -157.909     356.560
  O     -100.368    -160.257     356.767
  O      -98.763    -158.423     355.999
  H      -99.929    -160.662     356.003
  H     -101.972    -156.101     355.902
  H     -100.246    -156.099     356.342
  H     -101.501    -156.149     357.615
  H     -103.379    -162.349     358.972
  H     -102.901    -163.184     360.431
  H     -102.368    -163.771     358.874

 3  4  5  6  7  8  9  10  11  12  23  26  30  31 0
 6-311+G(2d,p)
 ****
 33  35  36  37  38 0
 6-311+G(2d,p)
 ****
 1  2  13  14  15  16  17  18  19  20  21  22  24  25 0
 3-21G
 ****
 27  28  29  32  34  39  40  41  42  43  44  45  46  47  48  49 0
 3-21G
 ****


