%nproc=1
%NoSave
%Mem=1900MB
#P OB98/GEN NMR

erre ene a

0 1
  C     -224.001     370.404    -222.851
  O     -224.628     369.155    -223.067
  H     -223.995     370.611    -221.778
  H     -224.550     371.203    -223.358
  H     -222.968     370.377    -223.208
  P     -224.835     368.655    -224.574
  C     -222.966     366.921    -224.138
  O     -223.471     367.933    -225.003
  C     -222.443     365.736    -224.946
  O     -223.500     365.165    -225.741
  C     -221.331     366.093    -225.929
  O     -220.111     366.295    -225.248
  C     -221.377     364.884    -226.848
  O     -220.716     363.757    -226.252
  C     -222.903     364.635    -226.946
  N     -223.515     365.226    -228.132
  C     -223.525     364.428    -229.281
  O     -223.027     363.302    -229.260
  N     -224.089     364.937    -230.426
  C     -224.628     366.114    -230.416
  N     -225.175     366.557    -231.580
  C     -224.668     366.973    -229.217
  C     -224.088     366.478    -228.126
  O     -225.325     369.681    -225.550
  O     -225.862     367.436    -224.436
  H     -220.812     363.022    -226.888
  H     -226.778     367.743    -224.570
  H     -225.139     367.944    -229.252
  H     -224.074     367.045    -227.202
  H     -223.112     363.558    -226.958
  H     -220.886     365.073    -227.804
  H     -221.612     366.978    -226.508
  H     -222.108     364.964    -224.238
  H     -225.141     365.923    -232.372
  H     -223.794     366.602    -223.496
  H     -225.757     367.378    -231.648
  H     -222.171     367.321    -223.499
  P     -219.021     367.346    -225.774
  C     -219.304     369.273    -224.095
  O     -219.600     368.796    -225.399
  O     -218.616     367.182    -227.198
  O     -217.811     367.181    -224.741
  H     -217.291     366.365    -224.947
  H     -219.739     370.241    -223.962
  H     -218.243     369.339    -223.972
  H     -219.707     368.598    -223.369

 6  7  8  9  10  11  12  13  14  15  16  26  30  31  32  33  35 0
 6-311+G(2d,p)
 ****
 37  38 0
 6-311+G(2d,p)
 ****
 1  2  3  4  5  17  18  19  20  21  22  23  24  25 0
 3-21G
 ****
 27  28  29  34  36  39  40  41  42  43  44  45  46 0
 3-21G
 ****


