%nproc=1
%NoSave
%Mem=1900MB
#P OB98/GEN NMR

erre ene a

0 1
  C       29.823     -29.303      27.318
  O       28.494     -28.913      27.605
  H       30.378     -28.423      26.982
  H       29.833     -30.046      26.518
  H       30.310     -29.705      28.210
  P       27.485     -29.999      28.215
  C       28.390     -29.629      30.593
  O       27.247     -29.596      29.752
  C       27.997     -30.004      32.021
  O       29.200     -30.100      32.825
  C       27.065     -28.987      32.688
  O       26.125     -29.696      33.495
  C       27.996     -28.185      33.576
  O       27.321     -27.613      34.695
  C       29.039     -29.232      33.964
  N       32.083     -28.088      37.830
  C       30.896     -28.794      37.808
  N       30.435     -29.245      38.994
  N       30.219     -29.036      36.717
  C       30.804     -28.540      35.600
  C       31.972     -27.824      35.490
  C       32.707     -27.550      36.707
  O       33.754     -26.919      36.792
  N       32.220     -27.472      34.187
  C       31.201     -27.972      33.512
  N       30.309     -28.619      34.325
  O       27.875     -31.427      28.004
  O       26.084     -29.658      27.525
  H       28.011     -27.317      35.327
  H       25.906     -30.268      26.785
  H       32.559     -27.922      38.699
  H       31.057     -27.887      32.442
  H       28.724     -29.839      34.822
  H       28.451     -27.372      32.997
  H       30.911     -29.111      39.873
  H       26.536     -28.355      31.967
  H       29.578     -29.786      38.999
  H       27.544     -31.002      32.006
  H       28.852     -28.636      30.585
  H       29.110     -30.356      30.199
  P       24.565     -29.588      33.139
  C       24.194     -31.458      31.404
  O       24.035     -31.055      32.761
  O       24.196     -28.509      32.175
  O       23.891     -29.337      34.574
  H       23.080     -28.804      34.452
  H       23.805     -32.447      31.278
  H       25.233     -31.448      31.148
  H       23.663     -30.782      30.767

 6  7  8  9  10  11  12  13  14  15  26  29  33  34 0
 6-311+G(2d,p)
 ****
 36  38  39  40  41 0
 6-311+G(2d,p)
 ****
 1  2  3  4  5  16  17  18  19  20  21  22  23  24  25 0
 3-21G
 ****
 27  28  30  31  32  35  37  42  43  44  45  46  47 0
 3-21G
 ****
 48  49 0
 3-21G
 ****


