%nproc=1
%NoSave
%Mem=1900MB
#P OB98/GEN NMR

erre ene a

0 1
  C     -283.158     332.559     455.893
  O     -282.007     333.374     455.832
  H     -283.683     332.614     454.933
  H     -283.836     332.902     456.680
  H     -282.869     331.517     456.076
  P     -281.144     333.603     457.161
  C     -281.583     336.135     457.260
  O     -280.606     335.115     457.106
  C     -281.523     337.129     456.092
  O     -280.130     337.468     455.847
  C     -282.106     336.576     454.785
  O     -282.784     337.640     454.105
  C     -280.872     336.154     454.018
  O     -281.108     336.112     452.620
  C     -279.834     337.188     454.468
  N     -278.475     336.692     454.291
  C     -277.521     337.623     453.846
  O     -277.852     338.795     453.634
  N     -276.248     337.199     453.574
  C     -275.953     335.937     453.688
  N     -274.679     335.572     453.370
  C     -276.925     334.916     454.128
  C     -278.148     335.359     454.414
  O     -280.096     332.576     457.445
  O     -282.251     333.651     458.325
  H     -281.406     337.008     452.318
  H     -282.396     332.753     458.687
  H     -276.630     333.878     454.199
  H     -278.937     334.680     454.733
  H     -279.947     338.125     453.902
  H     -280.566     335.149     454.331
  H     -282.800     335.738     454.946
  H     -282.028     338.054     456.390
  H     -274.050     336.308     453.042
  H     -281.378     336.663     458.205
  H     -274.341     334.621     453.375
  H     -282.583     335.694     457.317
  P     -284.390     337.661     454.013
  C     -284.674     338.057     451.507
  O     -284.830     338.624     452.800
  O     -285.089     337.937     455.309
  O     -284.758     336.192     453.472
  H     -285.632     335.937     453.816
  H     -284.989     338.763     450.767
  H     -285.270     337.172     451.431
  H     -283.645     337.809     451.348

 6  7  8  9  10  11  12  13  14  15  16  26  30  31  32  33  35 0
 6-311+G(2d,p)
 ****
 37  38 0
 6-311+G(2d,p)
 ****
 1  2  3  4  5  17  18  19  20  21  22  23  24  25 0
 3-21G
 ****
 27  28  29  34  36  39  40  41  42  43  44  45  46 0
 3-21G
 ****


