%nproc=1
%NoSave
%Mem=1900MB
#P OB98/GEN NMR

erre ene a

0 1
  C      116.291    -468.858     135.680
  O      117.350    -468.724     134.751
  H      115.684    -469.737     135.440
  H      116.713    -468.982     136.680
  H      115.666    -467.959     135.668
  P      116.932    -468.635     133.204
  C      118.829    -470.290     132.571
  O      117.439    -469.997     132.518
  C      119.042    -471.774     132.843
  O      118.504    -472.126     134.138
  C      118.359    -472.711     131.857
  O      119.084    -472.825     130.638
  C      118.376    -474.015     132.642
  O      119.675    -474.630     132.529
  C      118.148    -473.534     134.084
  N      114.877    -476.459     136.753
  C      116.200    -476.597     136.484
  N      116.999    -475.790     135.759
  C      116.312    -474.729     135.295
  C      114.964    -474.454     135.485
  C      114.230    -475.386     136.247
  N      112.884    -475.245     136.497
  N      114.615    -473.274     134.868
  C      115.727    -472.836     134.322
  N      116.780    -473.685     134.544
  O      117.933    -467.532     132.611
  O      115.507    -468.278     132.945
  H      119.864    -474.711     131.573
  H      117.461    -467.011     131.931
  H      116.678    -477.474     136.918
  H      115.818    -471.912     133.759
  H      118.802    -474.055     134.788
  H      117.641    -474.738     132.290
  H      117.320    -472.408     131.679
  H      120.128    -471.961     132.869
  H      119.290    -469.708     133.376
  H      112.461    -475.823     137.203
  H      112.408    -474.428     136.118
  H      119.288    -470.008     131.620
  P      118.339    -472.376     129.284
  C      119.239    -474.545     128.177
  O      118.105    -473.730     128.459
  O      119.498    -471.638     128.466
  O      117.147    -471.503     129.480
  H      119.102    -470.995     127.843
  H      118.930    -475.408     127.624
  H      119.694    -474.854     129.095
  H      119.945    -473.986     127.600

 6  7  8  9  10  11  12  13  14  15  25  28  32  33  34  35 0
 6-311+G(2d,p)
 ****
 36  39  40 0
 6-311+G(2d,p)
 ****
 1  2  3  4  5  16  17  18  19  20  21  22  23  24 0
 3-21G
 ****
 26  27  29  30  31  37  38  41  42  43  44  45  46  47  48 0
 3-21G
 ****


