%nproc=1
%NoSave
%Mem=1900MB
#P OB98/GEN NMR

erre ene a

0 1
  C      -74.047      95.579     -47.414
  O      -73.532      94.317     -47.785
  H      -74.735      95.439     -46.579
  H      -74.590      96.017     -48.252
  H      -73.243      96.254     -47.104
  P      -72.264      94.254     -48.760
  C      -72.766      92.307     -50.389
  O      -72.090      92.722     -49.209
  C      -73.530      90.999     -50.154
  O      -72.579      89.961     -49.790
  C      -74.514      91.129     -48.985
  O      -75.627      90.240     -49.126
  C      -73.687      90.686     -47.798
  O      -74.478      90.225     -46.695
  C      -72.808      89.601     -48.422
  N      -70.079      86.836     -45.107
  C      -71.428      86.785     -45.387
  N      -72.153      85.874     -44.676
  N      -72.028      87.568     -46.241
  C      -71.195      88.479     -46.812
  C      -69.842      88.642     -46.613
  C      -69.194      87.742     -45.681
  O      -67.998      87.759     -45.387
  N      -69.345      89.675     -47.366
  C      -70.391      90.140     -48.017
  N      -71.529      89.433     -47.737
  O      -71.020      94.469     -47.775
  O      -72.259      95.252     -49.879
  H      -74.893      91.007     -46.281
  H      -70.245      94.796     -48.271
  H      -69.662      86.190     -44.456
  H      -70.372      90.968     -48.718
  H      -73.322      88.632     -48.406
  H      -73.117      91.544     -47.434
  H      -71.766      85.400     -43.878
  H      -74.887      92.142     -48.853
  H      -73.161      86.039     -44.633
  H      -74.016      90.673     -51.084
  H      -72.002      92.185     -51.167
  H      -73.453      93.100     -50.731
  P      -77.067      90.869     -49.454
  C      -78.662      89.163     -48.203
  O      -78.185      89.726     -49.410
  O      -76.978      91.247     -51.005
  O      -77.434      92.055     -48.604
  H      -77.046      92.220     -51.123
  H      -79.402      88.422     -48.423
  H      -79.096      89.932     -47.598
  H      -77.849      88.709     -47.675

 6  7  8  9  10  11  12  13  14  15  26  29  33  34 0
 6-311+G(2d,p)
 ****
 36  38  39  40  41 0
 6-311+G(2d,p)
 ****
 1  2  3  4  5  16  17  18  19  20  21  22  23  24  25 0
 3-21G
 ****
 27  28  30  31  32  35  37  42  43  44  45  46  47 0
 3-21G
 ****
 48  49 0
 3-21G
 ****


