%nproc=1
%NoSave
%Mem=1900MB
#P OB98/GEN NMR

erre ene a

0 1
  C      225.005      98.288      -2.236
  O      224.775      99.678      -2.321
  H      224.564      97.803      -3.111
  H      224.530      97.885      -1.339
  H      226.078      98.073      -2.217
  P      225.475     100.612      -1.219
  C      227.630     101.161      -2.559
  O      226.409     101.646      -2.018
  C      227.941     101.859      -3.887
  O      227.043     101.342      -4.902
  C      227.771     103.378      -3.833
  O      228.804     103.980      -4.625
  C      226.427     103.615      -4.500
  O      226.313     104.920      -5.066
  C      226.377     102.467      -5.515
  N      225.000     102.145      -5.891
  C      224.532     102.701      -7.084
  O      225.259     103.434      -7.758
  N      223.231     102.471      -7.456
  C      222.442     101.808      -6.664
  N      221.157     101.636      -7.076
  C      222.882     101.260      -5.364
  C      224.160     101.454      -5.048
  O      226.526      99.634      -0.517
  O      224.544     101.247      -0.240
  H      226.599     105.573      -4.392
  H      226.652      99.863       0.424
  H      222.181     100.737      -4.726
  H      224.569     101.095      -4.112
  H      226.937     102.730      -6.423
  H      225.626     103.500      -3.759
  H      227.808     103.784      -2.819
  H      228.960     101.586      -4.190
  H      220.892     102.043      -7.965
  H      227.538     100.084      -2.737
  H      220.449     101.178      -6.520
  H      228.442     101.332      -1.841
  P      229.418     105.356      -4.080
  C      231.899     104.596      -3.917
  O      230.951     105.447      -4.552
  O      229.521     105.118      -2.499
  O      228.584     106.555      -4.404
  H      228.846     105.649      -2.038
  H      232.869     104.769      -4.334
  H      231.621     103.574      -4.072
  H      231.919     104.805      -2.868

 6  7  8  9  10  11  12  13  14  15  16  26  30  31  32  33  35 0
 6-311+G(2d,p)
 ****
 37  38 0
 6-311+G(2d,p)
 ****
 1  2  3  4  5  17  18  19  20  21  22  23  24  25 0
 3-21G
 ****
 27  28  29  34  36  39  40  41  42  43  44  45  46 0
 3-21G
 ****


