%nproc=1
%NoSave
%Mem=1900MB
#P OB98/GEN NMR

erre ene a

0 1
  C       68.526     204.991      47.669
  O       68.595     203.596      47.368
  P       69.860     203.022      46.573
  C       70.933     201.825      48.601
  O       71.080     202.821      47.595
  C       71.865     200.645      48.310
  O       73.245     201.072      48.210
  C       71.864     199.602      49.420
  O       70.686     198.839      49.575
  C       73.155     198.846      49.156
  O       72.982     197.849      48.149
  C       74.079     199.978      48.647
  N       75.043     200.415      49.656
  C       76.178     199.622      49.801
  O       76.363     198.586      49.167
  N       77.083     200.042      50.738
  C       76.952     201.133      51.547
  O       77.784     201.452      52.386
  C       75.721     201.919      51.364
  C       74.837     201.530      50.442
  O       70.204     203.726      45.305
  O       69.423     201.506      46.264
  H       72.785     198.312      47.312
  H       69.712     201.292      45.356
  H       77.915     199.486      50.851
  H       75.580     202.786      51.993
  H       73.924     202.095      50.291
  H       74.644     199.644      47.768
  H       73.515     198.335      50.053
  H       72.000     200.129      50.376
  H       71.585     200.208      47.350
  H       69.896     201.488      48.638
  H       71.149     202.272      49.577
  P       70.264     198.142      50.957
  C       68.444     199.833      51.700
  O       69.717     199.277      51.947
  O       71.199     197.130      51.528
  O       68.904     197.398      50.532
  H       68.829     196.576      51.050
  H       68.243     200.595      52.458
  H       67.672     199.063      51.764
  H       68.420     200.306      50.715
  H       67.620     205.197      48.200
  H       68.542     205.553      46.759
  H       69.364     205.267      48.274

 3  4  5  6  7  8  9  10  11  12  13  23  28  29  30  31  32 0
 6-311+G(2d,p)
 ****
 33  34 0
 6-311+G(2d,p)
 ****
 1  2  14  15  16  17  18  19  20  21  22  24  25  26  27 0
 3-21G
 ****
 35  36  37  38  39  40  41  42  43  44  45 0
 3-21G
 ****


