%nproc=1
%NoSave
%Mem=1900MB
#P OB98/GEN NMR

erre ene a

0 1
  C       15.227     338.882     146.007
  O       15.189     339.381     147.351
  P       14.006     339.041     148.376
  C       15.314     337.667     150.124
  O       14.315     337.650     149.106
  C       15.180     336.466     151.067
  O       13.958     336.547     151.823
  C       15.134     335.113     150.371
  O       16.426     334.715     149.933
  C       14.541     334.236     151.471
  O       15.548     333.818     152.402
  C       13.542     335.206     152.141
  N       12.166     334.960     151.732
  C       11.450     334.019     152.483
  O       11.998     333.398     153.390
  N       10.133     333.784     152.155
  C        9.606     334.381     151.133
  N        8.299     334.118     150.869
  C       10.349     335.313     150.264
  C       11.612     335.552     150.623
  O       12.641     339.122     147.769
  O       14.149     340.120     149.550
  H       15.892     334.632     152.819
  H       13.268     340.313     149.918
  H        9.880     335.768     149.406
  H       12.229     336.234     150.047
  H       13.607     335.120     153.233
  H       14.068     333.330     151.079
  H       14.442     335.150     149.521
  H       16.018     336.505     151.776
  H        7.813     333.480     151.483
  H       15.200     338.592     150.700
  H        7.790     334.529     150.097
  H       16.300     337.672     149.650
  P       16.588     333.949     148.537
  C       18.993     334.550     147.852
  O       17.615     334.797     147.640
  O       15.316     333.567     147.857
  O       17.446     332.650     148.916
  H       17.190     331.918     148.321
  H       19.542     334.852     146.960
  H       19.179     333.490     148.051
  H       19.338     335.148     148.704
  H       16.108     339.242     145.518
  H       14.361     339.220     145.477
  H       15.240     337.812     146.024

 3  4  5  6  7  8  9  10  11  12  13  23  27  28  29  30  32 0
 6-311+G(2d,p)
 ****
 34  35 0
 6-311+G(2d,p)
 ****
 1  2  14  15  16  17  18  19  20  21  22  24  25  26 0
 3-21G
 ****
 31  33  36  37  38  39  40  41  42  43  44  45  46 0
 3-21G
 ****


