%nproc=1
%NoSave
%Mem=1900MB
#P OB98/GEN NMR

erre ene a

0 1
  C     -666.879     -81.804     480.250
  O     -667.692     -82.358     481.267
  H     -667.349     -81.997     479.284
  H     -665.894     -82.277     480.266
  H     -666.779     -80.724     480.384
  P     -667.325     -81.995     482.785
  C     -667.476     -84.097     484.310
  O     -668.161     -83.008     483.712
  C     -668.474     -85.138     484.802
  O     -669.291     -84.538     485.850
  C     -669.434     -85.648     483.714
  O     -669.689     -87.040     483.957
  C     -670.698     -84.857     483.972
  O     -671.877     -85.473     483.476
  C     -670.674     -84.755     485.506
  N     -671.515     -83.677     486.008
  C     -672.769     -84.031     486.505
  O     -673.187     -85.177     486.621
  N     -673.571     -82.977     486.876
  C     -673.259     -81.649     486.778
  O     -674.026     -80.756     487.112
  C     -671.922     -81.348     486.244
  C     -671.129     -82.357     485.887
  O     -668.064     -80.592     483.005
  O     -665.865     -81.930     483.095
  H     -667.471     -79.854     482.764
  H     -672.582     -84.798     483.464
  H     -674.480     -83.209     487.233
  H     -671.644     -80.306     486.142
  H     -670.149     -82.167     485.471
  H     -670.979     -85.709     485.950
  H     -670.616     -83.865     483.514
  H     -669.064     -85.515     482.694
  H     -667.923     -85.971     485.260
  H     -666.888     -83.732     485.161
  H     -666.792     -84.538     483.575
  P     -669.857     -87.993     482.678
  C     -671.757     -89.250     483.970
  O     -670.549     -89.330     483.225
  O     -668.342     -88.408     482.407
  O     -670.545     -87.321     481.538
  H     -667.818     -88.510     483.221
  H     -672.069     -90.234     484.250
  H     -672.516     -88.792     483.371
  H     -671.595     -88.663     484.850

 6  7  8  9  10  11  12  13  14  15  16  27  31  32  33  34  35 0
 6-311+G(2d,p)
 ****
 36  37 0
 6-311+G(2d,p)
 ****
 1  2  3  4  5  17  18  19  20  21  22  23  24  25 0
 3-21G
 ****
 26  28  29  30  38  39  40  41  42  43  44  45 0
 3-21G
 ****


