%nproc=1
%NoSave
%Mem=1900MB
#P OB98/GEN NMR

erre ene a

0 1
  C      529.885    -213.503     115.971
  O      529.989    -212.085     115.852
  P      528.965    -211.171     116.681
  C      527.441    -210.376     114.751
  O      527.546    -211.177     115.927
  C      526.195    -210.772     113.940
  O      526.276    -212.179     113.611
  C      524.862    -210.589     114.673
  O      524.202    -209.329     114.573
  C      523.982    -211.599     113.945
  O      523.472    -211.013     112.730
  C      524.940    -212.737     113.600
  N      521.942    -216.476     115.386
  C      521.738    -215.523     114.450
  N      522.587    -214.562     114.034
  C      523.760    -214.655     114.679
  C      524.114    -215.570     115.659
  C      523.135    -216.519     116.014
  N      523.342    -217.481     116.980
  N      525.399    -215.345     116.096
  C      525.812    -214.299     115.407
  N      524.863    -213.852     114.526
  O      529.472    -209.829     117.088
  O      528.663    -212.081     117.969
  H      522.916    -210.259     113.000
  H      528.580    -211.499     118.754
  H      520.761    -215.532     113.973
  H      526.783    -213.833     115.511
  H      524.767    -213.143     112.601
  H      523.113    -211.897     114.537
  H      524.956    -210.872     115.730
  H      526.185    -210.201     112.999
  H      528.339    -210.511     114.140
  H      522.571    -218.093     117.207
  H      524.207    -217.490     117.498
  H      527.428    -209.334     115.067
  P      524.368    -208.204     115.701
  C      522.255    -206.715     115.286
  O      522.878    -207.729     116.055
  O      525.314    -207.102     115.370
  O      524.777    -209.065     116.988
  H      524.072    -209.637     117.332
  H      521.194    -206.686     115.541
  H      522.358    -206.920     114.215
  H      522.700    -205.743     115.525
  H      530.632    -213.968     115.362
  H      528.915    -213.818     115.648
  H      530.031    -213.787     116.992

 3  4  5  6  7  8  9  10  11  12  22  25  29  30  31  32 0
 6-311+G(2d,p)
 ****
 33  36  37 0
 6-311+G(2d,p)
 ****
 1  2  13  14  15  16  17  18  19  20  21  23  24  26 0
 3-21G
 ****
 27  28  34  35  38  39  40  41  42  43  44  45  46  47  48 0
 3-21G
 ****


