%nproc=1
%NoSave
%Mem=1900MB
#P OB98/GEN NMR

erre ene a

0 1
  C      -35.178     -65.967     138.210
  O      -35.090     -66.146     136.795
  P      -33.664     -66.452     136.132
  C      -34.064     -65.240     133.892
  O      -33.310     -65.281     135.093
  C      -33.421     -64.291     132.869
  O      -33.447     -62.931     133.377
  C      -31.962     -64.650     132.553
  O      -31.699     -64.747     131.154
  C      -31.167     -63.598     133.307
  O      -29.870     -63.393     132.770
  C      -32.114     -62.392     133.303
  N      -31.827     -61.467     134.403
  C      -30.831     -60.526     134.183
  O      -30.150     -60.493     133.158
  N      -30.592     -59.651     135.209
  C      -31.188     -59.679     136.436
  O      -30.907     -58.902     137.339
  C      -32.189     -60.738     136.634
  C      -32.457     -61.568     135.625
  O      -33.475     -67.837     135.612
  O      -32.641     -66.158     137.337
  H      -29.958     -63.198     131.811
  H      -31.930     -66.826     137.296
  H      -29.884     -58.949     135.057
  H      -32.665     -60.804     137.602
  H      -33.180     -62.364     135.747
  H      -32.023     -61.826     132.371
  H      -31.038     -63.940     134.342
  H      -31.703     -65.642     132.939
  H      -34.030     -64.332     131.960
  H      -35.074     -64.892     134.109
  H      -34.169     -66.255     133.494
  P      -31.699     -66.115     130.325
  C      -29.109     -66.139     130.236
  O      -30.292     -66.843     130.555
  O      -32.126     -66.011     128.900
  O      -32.727     -67.032     131.143
  H      -33.272     -67.542     130.516
  H      -28.301     -66.861     130.093
  H      -28.845     -65.476     131.064
  H      -29.227     -65.555     129.320
  H      -36.194     -65.772     138.482
  H      -34.565     -65.140     138.504
  H      -34.840     -66.854     138.703

 3  4  5  6  7  8  9  10  11  12  13  23  28  29  30  31  32 0
 6-311+G(2d,p)
 ****
 33  34 0
 6-311+G(2d,p)
 ****
 1  2  14  15  16  17  18  19  20  21  22  24  25  26  27 0
 3-21G
 ****
 35  36  37  38  39  40  41  42  43  44  45 0
 3-21G
 ****


