%nproc=1
%NoSave
%Mem=1900MB
#P OB98/GEN NMR

erre ene a

0 1
  C     -224.122    -409.845    -578.796
  O     -223.021    -408.969    -578.735
  H     -223.753    -410.870    -578.688
  H     -224.626    -409.763    -579.766
  H     -224.828    -409.642    -577.991
  P     -223.263    -407.388    -578.909
  C     -222.758    -407.660    -581.416
  O     -223.695    -407.193    -580.453
  C     -223.365    -407.646    -582.820
  O     -224.481    -408.575    -582.880
  C     -223.898    -406.270    -583.256
  O     -223.451    -405.977    -584.588
  C     -225.406    -406.450    -583.263
  O     -226.078    -405.539    -584.129
  C     -225.514    -407.934    -583.643
  N     -226.836    -408.470    -583.357
  C     -227.714    -408.576    -584.448
  O     -227.344    -408.218    -585.574
  N     -228.993    -409.015    -584.236
  C     -229.384    -409.288    -583.025
  N     -230.673    -409.701    -582.884
  C     -228.504    -409.167    -581.834
  C     -227.254    -408.770    -582.080
  O     -222.126    -406.526    -578.462
  O     -224.624    -407.093    -578.122
  H     -225.952    -404.627    -583.788
  H     -224.651    -406.137    -577.885
  H     -228.882    -409.405    -580.860
  H     -226.542    -408.652    -581.272
  H     -225.296    -408.086    -584.710
  H     -225.791    -406.298    -582.244
  H     -223.595    -405.460    -582.591
  H     -222.614    -408.022    -583.534
  H     -231.247    -409.752    -583.713
  H     -222.446    -408.667    -581.143
  H     -231.096    -409.910    -581.985
  H     -221.888    -406.992    -581.404
  P     -222.338    -404.817    -584.717
  C     -223.652    -402.976    -586.006
  O     -223.101    -403.401    -584.763
  O     -221.785    -405.005    -586.206
  O     -221.247    -404.917    -583.700
  H     -220.870    -405.346    -586.181
  H     -224.124    -402.024    -585.880
  H     -224.375    -403.691    -586.339
  H     -222.871    -402.894    -586.733

 6  7  8  9  10  11  12  13  14  15  16  26  30  31  32  33  35 0
 6-311+G(2d,p)
 ****
 37  38 0
 6-311+G(2d,p)
 ****
 1  2  3  4  5  17  18  19  20  21  22  23  24  25 0
 3-21G
 ****
 27  28  29  34  36  39  40  41  42  43  44  45  46 0
 3-21G
 ****


