%nproc=1
%NoSave
%Mem=1900MB
#P OB98/GEN NMR

erre ene a

0 1
  C      149.664    -108.057     137.716
  O      148.694    -107.053     137.468
  P      148.734    -105.752     138.412
  C      150.749    -104.637     137.181
  O      149.377    -104.579     137.532
  C      150.996    -103.797     135.926
  O      150.588    -104.525     134.748
  C      150.234    -102.479     135.896
  O      150.914    -101.496     136.655
  C      150.196    -102.184     134.399
  O      151.437    -101.600     133.959
  C      150.005    -103.587     133.804
  N      146.158    -103.100     130.562
  C      147.384    -102.462     130.587
  N      147.636    -101.605     129.575
  N      148.282    -102.651     131.517
  C      147.888    -103.528     132.472
  C      146.697    -104.208     132.565
  C      145.735    -104.029     131.502
  O      144.678    -104.643     131.381
  N      146.651    -104.991     133.689
  C      147.825    -104.805     134.256
  N      148.621    -103.944     133.548
  O      149.873    -106.113     139.474
  O      147.433    -105.396     139.059
  H      151.532    -100.715     134.355
  H      149.477    -106.437     140.307
  H      145.514    -102.928     129.809
  H      148.153    -105.286     135.165
  H      150.543    -103.708     132.856
  H      149.405    -101.475     134.140
  H      146.983    -101.391     128.837
  H      149.213    -102.619     136.270
  H      148.529    -101.124     129.579
  H      152.075    -103.618     135.849
  H      151.027    -105.675     136.980
  H      151.350    -104.264     138.018
  P      150.141    -100.123     136.949
  C      148.905    -100.523     139.197
  O      150.030     -99.974     138.539
  O      148.640    -100.439     136.488
  O      150.690     -98.936     136.232
  H      148.243     -99.640     136.091
  H      149.198    -100.814     140.209
  H      148.517    -101.401     138.673
  H      148.120     -99.765     139.259
  H      149.529    -108.862     137.024
  H      149.551    -108.423     138.715
  H      150.644    -107.644     137.596

 3  4  5  6  7  8  9  10  11  12  23  26  30  31 0
 6-311+G(2d,p)
 ****
 33  35  36  37  38 0
 6-311+G(2d,p)
 ****
 1  2  13  14  15  16  17  18  19  20  21  22  24  25 0
 3-21G
 ****
 27  28  29  32  34  39  40  41  42  43  44  45  46  47  48  49 0
 3-21G
 ****


