%nproc=1
%NoSave
%Mem=1900MB
#P OB98/GEN NMR

erre ene a

0 1
  C     -476.769    -882.466     237.564
  O     -476.273    -883.429     238.475
  H     -475.967    -882.205     236.863
  H     -477.076    -881.555     238.100
  H     -477.612    -882.873     237.006
  P     -477.292    -883.917     239.620
  C     -475.694    -884.502     241.557
  O     -476.451    -885.000     240.465
  C     -475.102    -885.652     242.372
  O     -476.178    -886.366     243.027
  C     -474.331    -886.669     241.518
  O     -473.186    -887.128     242.244
  C     -475.312    -887.819     241.355
  O     -474.665    -889.064     241.111
  C     -476.087    -887.753     242.677
  N     -478.878    -891.924     243.629
  C     -477.620    -891.574     243.975
  N     -476.961    -890.446     243.700
  C     -477.748    -889.583     243.005
  C     -479.052    -889.797     242.570
  C     -479.604    -891.040     242.905
  N     -480.881    -891.411     242.522
  N     -479.494    -888.705     241.850
  C     -478.499    -887.846     241.866
  N     -477.417    -888.336     242.542
  O     -478.627    -884.377     239.146
  O     -477.311    -882.656     240.611
  H     -474.059    -889.246     241.860
  H     -476.409    -882.304     240.753
  H     -477.075    -892.322     244.570
  H     -478.509    -886.857     241.403
  H     -475.573    -888.291     243.486
  H     -475.982    -887.607     240.511
  H     -474.023    -886.257     240.564
  H     -474.464    -885.235     243.161
  H     -476.333    -883.889     242.208
  H     -481.224    -892.317     242.808
  H     -481.457    -890.763     241.986
  H     -474.895    -883.868     241.160
  P     -471.742    -886.772     241.661
  C     -470.580    -888.862     242.685
  O     -470.623    -887.424     242.633
  O     -471.496    -885.356     241.296
  O     -471.643    -887.724     240.363
  H     -471.169    -887.240     239.659
  H     -469.806    -889.172     243.356
  H     -470.380    -889.248     241.707
  H     -471.522    -889.235     243.030

 6  7  8  9  10  11  12  13  14  15  25  28  32  33  34  35 0
 6-311+G(2d,p)
 ****
 36  39  40 0
 6-311+G(2d,p)
 ****
 1  2  3  4  5  16  17  18  19  20  21  22  23  24 0
 3-21G
 ****
 26  27  29  30  31  37  38  41  42  43  44  45  46  47 0
 3-21G
 ****
 48 0
 3-21G
 ****


