%nproc=1
%NoSave
%Mem=1900MB
#P OB98/GEN NMR

erre ene a

0 1
  C      509.217     492.298    -297.550
  O      510.024     493.314    -296.985
  H      508.157     492.567    -297.465
  H      509.468     492.194    -298.606
  H      509.401     491.345    -297.045
  P      509.815     493.625    -295.425
  C      511.758     492.062    -294.693
  O      510.365     492.332    -294.646
  C      512.394     492.377    -293.340
  O      512.076     493.731    -292.953
  C      511.901     491.489    -292.201
  O      512.561     490.237    -292.171
  C      512.292     492.340    -291.001
  O      513.705     492.227    -290.762
  C      511.944     493.758    -291.499
  N      508.987     495.594    -287.753
  C      510.291     495.250    -287.785
  N      511.004     494.760    -288.825
  C      510.230     494.644    -289.913
  C      508.889     494.943    -290.032
  C      508.257     495.452    -288.883
  N      506.918     495.793    -288.844
  N      508.426     494.657    -291.304
  C      509.490     494.215    -291.951
  N      510.603     494.179    -291.149
  O      508.229     493.518    -295.228
  O      510.365     494.924    -294.943
  H      513.936     492.932    -290.124
  H      507.961     493.993    -294.419
  H      510.834     495.381    -286.850
  H      509.503     493.914    -292.992
  H      512.640     494.515    -291.121
  H      511.781     492.043    -290.086
  H      510.817     491.369    -292.220
  H      513.481     492.307    -293.452
  H      512.222     492.683    -295.464
  H      506.524     495.967    -287.933
  H      506.335     495.549    -289.633
  H      511.914     491.009    -294.949
  P      511.777     488.998    -291.521
  C      510.918     488.213    -293.848
  O      510.581     488.660    -292.531
  O      511.032     489.666    -290.271
  O      512.645     487.852    -291.120
  H      510.862     489.006    -289.575
  H      510.022     488.028    -294.402
  H      511.489     487.311    -293.783
  H      511.495     488.966    -294.343

 6  7  8  9  10  11  12  13  14  15  25  28  32  33  34  35 0
 6-311+G(2d,p)
 ****
 36  39  40 0
 6-311+G(2d,p)
 ****
 1  2  3  4  5  16  17  18  19  20  21  22  23  24 0
 3-21G
 ****
 26  27  29  30  31  37  38  41  42  43  44  45  46  47 0
 3-21G
 ****
 48 0
 3-21G
 ****


