%nproc=1
%NoSave
%Mem=1900MB
#P OB98/GEN NMR

erre ene a

0 1
  C     2952.411    -892.780     -67.726
  O     2952.345    -892.810     -66.288
  P     2951.451    -893.960     -65.621
  C     2953.125    -895.430     -64.248
  O     2952.365    -895.260     -65.447
  C     2954.600    -895.060     -64.516
  O     2954.757    -893.680     -64.897
  C     2955.489    -895.240     -63.289
  O     2955.893    -896.580     -63.145
  C     2956.684    -894.360     -63.686
  O     2957.541    -895.080     -64.576
  C     2956.011    -893.180     -64.404
  N     2957.844    -888.670     -62.825
  C     2958.347    -889.590     -63.681
  N     2957.795    -890.780     -64.029
  C     2956.624    -890.960     -63.428
  C     2955.967    -890.110     -62.520
  C     2956.645    -888.890     -62.237
  N     2956.134    -887.950     -61.380
  N     2954.771    -890.620     -62.102
  C     2954.665    -891.780     -62.741
  N     2955.757    -892.030     -63.545
  O     2950.424    -894.380     -66.774
  O     2950.733    -893.530     -64.378
  H     2958.232    -894.490     -64.890
  H     2949.565    -894.620     -66.389
  H     2959.291    -889.360     -64.116
  H     2953.853    -892.480     -62.656
  H     2956.609    -892.820     -65.242
  H     2957.292    -894.090     -62.801
  H     2955.007    -894.840     -62.372
  H     2954.966    -895.680     -65.334
  H     2953.063    -896.470     -63.895
  H     2956.620    -887.100     -61.226
  H     2955.224    -888.130     -60.973
  H     2952.680    -894.810     -63.462
  P     2955.362    -897.370     -61.831
  C     2954.050    -899.330     -62.936
  O     2953.999    -898.080     -62.262
  O     2954.889    -896.190     -60.852
  O     2956.388    -898.250     -61.182
  H     2954.989    -896.430     -59.930
  H     2953.080    -899.800     -62.891
  H     2954.794    -900.000     -62.436
  H     2954.368    -899.220     -63.958
  H     2953.036    -891.970     -68.038
  H     2951.427    -892.646     -68.125
  H     2952.818    -893.703     -68.084

 3  4  5  6  7  8  9  10  11  12  22  25  29  30  31  32 0
 6-311+G(2d,p)
 ****
 33  36  37 0
 6-311+G(2d,p)
 ****
 1  2  13  14  15  16  17  18  19  20  21  23  24  26 0
 3-21G
 ****
 27  28  34  35  38  39  40  41  42  43  44  45  46  47  48 0
 3-21G
 ****


