%nproc=1
%NoSave
%Mem=1900MB
#P OB98/GEN NMR

erre ene a

0 1
  C      115.531      92.201      99.183
  O      114.150      91.957      98.956
  P      113.535      92.438      97.551
  C      113.471      90.150      96.332
  O      114.110      91.415      96.457
  C      112.520      90.146      95.142
  O      111.472      91.110      95.352
  C      113.162      90.528      93.817
  O      113.852      89.435      93.228
  C      111.940      90.910      92.996
  O      111.321      89.722      92.467
  C      111.029      91.565      94.049
  N      108.278      95.784      93.546
  C      107.882      94.462      93.526
  N      106.559      94.234      93.377
  N      108.707      93.456      93.639
  C      109.993      93.837      93.822
  C      110.510      95.113      93.857
  C      109.592      96.217      93.680
  O      109.893      97.405      93.623
  N      111.863      95.097      94.077
  C      112.159      93.820      94.210
  N      111.063      93.013      94.033
  O      114.338      93.789      97.249
  O      112.061      92.653      97.546
  H      111.155      89.126      93.222
  H      113.808      94.367      96.665
  H      107.599      96.521      93.472
  H      113.146      93.439      94.433
  H      109.988      91.239      93.933
  H      112.180      91.552      92.144
  H      105.865      94.963      93.417
  H      113.815      91.400      93.932
  H      106.245      93.272      93.397
  H      112.059      89.152      95.075
  H      112.900      89.941      97.243
  H      114.238      89.377      96.215
  P      114.872      89.789      92.037
  C      116.897      89.491      93.638
  O      116.187      90.346      92.763
  O      114.218      91.085      91.367
  O      115.075      88.685      91.055
  H      114.490      91.155      90.431
  H      116.889      88.457      93.282
  H      116.446      89.537      94.633
  H      117.933      89.832      93.701
  H      115.804      91.832     100.150
  H      115.720      93.253      99.136
  H      116.109      91.701      98.434

 3  4  5  6  7  8  9  10  11  12  23  26  30  31  33  0
 6-311+G(2d,p)
 ****
 35  36  37  38 0
 6-311+G(2d,p)
 ****
 1  2  13  14  15  16  17  18  19  20  21  22  24  25  27  28  29 0
 3-21G
 ****
 32  34  39  40  41  42  43  44  45  46  47  48  49 0
 3-21G
 ****


