%nproc=1
%NoSave
%Mem=1900MB
#P OB98/GEN NMR

erre ene a

0 1
  C      258.634    -311.988      17.060
  O      258.387    -310.646      16.708
  H      259.249    -312.446      16.280
  H      257.684    -312.531      17.119
  H      259.160    -312.065      18.014
  P      257.918    -309.629      17.853
  C      258.677    -307.445      16.695
  O      257.575    -308.218      17.157
  C      258.226    -306.290      15.806
  O      257.964    -306.771      14.471
  C      256.931    -305.638      16.300
  O      257.117    -304.617      17.266
  C      256.344    -305.072      15.007
  O      256.834    -303.751      14.744
  C      256.838    -306.049      13.939
  N      252.249    -306.681      11.759
  C      252.852    -305.509      12.190
  N      252.122    -304.383      12.058
  N      254.051    -305.474      12.720
  C      254.615    -306.693      12.875
  C      254.107    -307.920      12.505
  C      252.817    -307.945      11.857
  O      252.251    -308.948      11.441
  N      254.954    -308.946      12.864
  C      255.922    -308.343      13.529
  N      255.806    -306.966      13.491
  O      259.273    -309.296      18.642
  O      256.869    -310.148      18.791
  H      256.386    -303.417      13.939
  H      259.074    -309.124      19.582
  H      251.341    -306.647      11.333
  H      256.760    -308.843      14.010
  H      257.199    -305.520      13.043
  H      255.254    -304.996      15.073
  H      251.164    -304.369      11.739
  H      256.239    -306.394      16.687
  H      252.447    -303.539      12.536
  H      259.037    -305.554      15.724
  H      259.316    -308.131      16.130
  H      259.259    -307.070      17.542
  P      256.193    -304.529      18.571
  C      257.954    -303.552      20.259
  O      256.762    -303.378      19.513
  O      256.566    -305.877      19.354
  O      254.727    -304.416      18.312
  H      255.892    -306.565      19.188
  H      258.156    -302.664      20.821
  H      258.768    -303.744      19.591
  H      257.839    -304.379      20.928

 6  7  8  9  10  11  12  13  14  15  26  29  33  34 0
 6-311+G(2d,p)
 ****
 36  38  39  40  41 0
 6-311+G(2d,p)
 ****
 1  2  3  4  5  16  17  18  19  20  21  22  23  24  25 0
 3-21G
 ****
 27  28  30  31  32  35  37  42  43  44  45  46  47 0
 3-21G
 ****
 48  49 0
 3-21G
 ****


