%nproc=1
%NoSave
%Mem=1900MB
#P OB98/GEN NMR

erre ene a

0 1
  C       84.922    -414.069    -433.713
  O       85.187    -413.655    -432.386
  H       85.858    -414.180    -434.268
  H       84.415    -415.038    -433.686
  H       84.273    -413.345    -434.213
  P       85.927    -412.243    -432.201
  C       88.214    -411.270    -432.958
  O       87.351    -412.399    -432.921
  C       89.628    -411.693    -432.575
  O       90.129    -412.670    -433.518
  C       90.646    -410.555    -432.580
  O       90.594    -409.787    -431.394
  C       91.944    -411.342    -432.667
  O       92.262    -411.898    -431.380
  C       91.561    -412.461    -433.651
  N       95.322    -411.552    -437.006
  C       95.338    -411.816    -435.681
  N       94.294    -412.045    -434.861
  C       93.135    -411.972    -435.532
  C       92.960    -411.701    -436.881
  C       94.123    -411.493    -437.638
  N       94.109    -411.202    -438.983
  N       91.614    -411.676    -437.205
  C       90.995    -411.963    -436.077
  N       91.868    -412.139    -435.037
  O       86.306    -412.217    -430.646
  O       85.145    -411.044    -432.621
  H       91.536    -412.515    -431.155
  H       86.459    -411.299    -430.356
  H       96.320    -411.855    -435.223
  H       89.923    -412.050    -435.962
  H       92.060    -413.410    -433.418
  H       92.793    -410.733    -432.976
  H       90.543    -409.928    -433.475
  H       89.587    -412.171    -431.588
  H       87.856    -410.521    -432.249
  H       94.978    -410.891    -439.390
  H       93.220    -411.011    -439.421
  H       88.204    -410.844    -433.965
  P       91.592    -408.530    -431.283
  C       94.179    -408.257    -431.245
  O       93.070    -409.152    -431.277
  O       91.386    -408.032    -429.778
  O       91.347    -407.446    -432.280
  H       91.591    -407.085    -429.694
  H       95.090    -408.818    -431.245
  H       94.129    -407.658    -430.360
  H       94.151    -407.623    -432.106

 6  7  8  9  10  11  12  13  14  15  25  28  32  33  34  35 0
 6-311+G(2d,p)
 ****
 36  39  40 0
 6-311+G(2d,p)
 ****
 1  2  3  4  5  16  17  18  19  20  21  22  23  24 0
 3-21G
 ****
 26  27  29  30  31  37  38  41  42  43  44  45  46  47 0
 3-21G
 ****
 48 0
 3-21G
 ****


