%nproc=1
%NoSave
%Mem=1900MB
#P OB98/GEN NMR

erre ene a

0 1
  C     1358.784    1306.599     321.629
  O     1358.234    1305.493     320.907
  P     1357.855    1304.187     321.773
  C     1355.272    1304.548     321.502
  O     1356.392    1304.490     322.364
  C     1354.112    1303.749     322.095
  O     1354.448    1302.343     322.169
  C     1353.728    1304.166     323.510
  O     1353.016    1305.394     323.503
  C     1352.912    1302.939     323.951
  O     1351.570    1303.030     323.425
  C     1353.666    1301.785     323.263
  N     1354.508    1301.049     324.200
  C     1353.932    1300.714     325.425
  O     1352.772    1301.036     325.718
  N     1354.706    1300.018     326.281
  C     1356.012    1299.629     326.073
  O     1356.650    1298.990     326.887
  C     1356.582    1300.046     324.790
  C     1355.818    1300.720     323.918
  O     1358.828    1304.331     323.022
  O     1357.996    1302.915     321.004
  H     1358.978    1305.259     323.282
  H     1351.020    1302.480     324.013
  H     1354.281    1299.726     327.169
  H     1357.621    1299.800     324.602
  H     1356.246    1301.058     322.980
  H     1352.970    1301.092     322.804
  H     1352.838    1302.866     325.027
  H     1354.628    1304.240     324.118
  H     1353.246    1303.842     321.420
  H     1355.531    1304.143     320.516
  H     1354.994    1305.604     321.353
  P     1353.697    1306.635     324.265
  C     1353.608    1307.943     321.995
  O     1354.360    1307.540     323.119
  O     1354.956    1305.920     324.956
  O     1352.786    1307.359     325.186
  H     1355.408    1305.283     324.362
  H     1354.099    1308.797     321.521
  H     1352.595    1308.233     322.285
  H     1353.562    1307.125     321.249
  H     1358.993    1307.399     320.950
  H     1359.689    1306.295     322.112
  H     1358.081    1306.930     322.365

 3  4  5  6  7  8  9  10  11  12  13  24  28  29  30  31  32 0
 6-311+G(2d,p)
 ****
 33  34 0
 6-311+G(2d,p)
 ****
 1  2  14  15  16  17  18  19  20  21  22  23  25  26  27 0
 3-21G
 ****
 35  36  37  38  39  40  41  42  43  44  45 0
 3-21G
 ****


