%nproc=1
%NoSave
%Mem=1900MB
#P OB98/GEN NMR

erre ene a

0 1
  C      -20.465     419.162    -139.575
  O      -20.393     418.086    -138.657
  P      -21.773     417.526    -138.055
  C      -22.085     415.421    -139.545
  O      -22.517     416.741    -139.240
  C      -23.276     414.523    -139.880
  O      -24.123     414.405    -138.703
  C      -24.158     415.033    -141.030
  O      -24.633     413.877    -141.730
  C      -25.284     415.725    -140.284
  O      -26.439     415.960    -141.069
  C      -25.462     414.768    -139.110
  N      -29.995     415.032    -136.765
  C      -29.565     414.292    -137.811
  N      -28.340     414.268    -138.375
  C      -27.510     415.115    -137.741
  C      -27.809     415.944    -136.676
  C      -29.122     415.884    -136.180
  N      -29.561     416.648    -135.117
  N      -26.710     416.693    -136.310
  C      -25.760     416.321    -137.143
  N      -26.190     415.355    -138.011
  O      -22.654     418.849    -137.883
  O      -21.640     416.769    -136.771
  H      -26.231     416.586    -141.791
  H      -23.185     418.815    -137.065
  H      -30.303     413.629    -138.255
  H      -24.758     416.724    -137.169
  H      -25.981     413.848    -139.405
  H      -24.931     416.703    -139.935
  H      -23.624     415.680    -141.731
  H      -22.898     413.518    -140.111
  H      -21.569     414.999    -138.678
  H      -30.559     416.678    -134.969
  H      -28.971     417.417    -134.829
  H      -21.373     415.456    -140.376
  P      -24.751     413.934    -143.330
  C      -22.794     412.335    -143.793
  O      -23.249     413.672    -143.837
  O      -24.902     415.510    -143.568
  O      -25.831     413.105    -143.933
  H      -24.210     416.011    -143.102
  H      -21.804     412.288    -144.253
  H      -23.474     411.683    -144.347
  H      -22.716     412.002    -142.755
  H      -19.478     419.428    -139.890
  H      -20.928     420.003    -139.103
  H      -21.044     418.867    -140.425

 3  4  5  6  7  8  9  10  11  12  22  25  29  30  31  32 0
 6-311+G(2d,p)
 ****
 33  36  37 0
 6-311+G(2d,p)
 ****
 1  2  13  14  15  16  17  18  19  20  21  23  24  26 0
 3-21G
 ****
 27  28  34  35  38  39  40  41  42  43  44  45  46  47  48 0
 3-21G
 ****


