%nproc=1
%NoSave
%Mem=1900MB
#P OB98/GEN NMR

erre ene a

0 1
  C      100.646    -300.546     169.313
  O      100.633    -301.598     168.359
  P       99.297    -302.479     168.229
  C      100.180    -304.220     169.961
  O       99.691    -303.978     168.652
  C      101.180    -305.381     169.956
  O      101.820    -305.444     171.261
  C      100.564    -306.762     169.684
  O      101.554    -307.529     168.989
  C      100.366    -307.329     171.083
  O      100.266    -308.749     171.087
  C      101.600    -306.771     171.787
  N      102.583    -309.041     176.207
  C      102.857    -309.462     174.912
  N      103.543    -310.624     174.794
  N      102.495    -308.805     173.844
  C      101.832    -307.652     174.124
  C      101.468    -307.151     175.356
  C      101.909    -307.867     176.531
  O      101.767    -307.492     177.691
  N      100.730    -306.007     175.233
  C      100.712    -305.772     173.940
  N      101.411    -306.713     173.228
  O       99.082    -302.574     166.650
  O       98.092    -301.944     168.942
  H       99.422    -308.992     170.646
  H       98.477    -301.873     166.332
  H      102.907    -309.579     176.991
  H      100.223    -304.938     173.455
  H      102.501    -307.374     171.595
  H       99.446    -306.922     171.520
  H      103.881    -311.164     175.574
  H       99.637    -306.719     169.113
  H      103.783    -310.937     173.856
  H      101.961    -305.160     169.222
  H       99.337    -304.493     170.608
  H      100.643    -303.308     170.358
  P      101.051    -308.767     168.099
  C      102.526    -310.535     169.288
  O      102.218    -309.857     168.084
  O      101.090    -308.166     166.609
  O       99.681    -309.269     168.438
  H      100.384    -308.572     166.072
  H      103.021    -311.481     169.049
  H      101.624    -310.749     169.876
  H      103.208    -309.922     169.890
  H      101.594    -300.051     169.286
  H      100.482    -300.949     170.291
  H       99.871    -299.845     169.081

 3  4  5  6  7  8  9  10  11  12  23  26  30  31 0
 6-311+G(2d,p)
 ****
 33  35  36  37  38 0
 6-311+G(2d,p)
 ****
 1  2  13  14  15  16  17  18  19  20  21  22  24  25 0
 3-21G
 ****
 27  28  29  32  34  39  40  41  42  43  44  45  46  47  48  49 0
 3-21G
 ****


