%nproc=1
%NoSave
%Mem=1900MB
#P OB98/GEN NMR

erre ene a

0 1
  C     -175.861     298.307    -327.964
  O     -176.026     298.049    -329.345
  P     -176.060     296.574    -329.966
  C     -177.441     297.105    -332.098
  O     -176.189     296.704    -331.562
  C     -177.314     298.239    -333.134
  O     -176.827     299.428    -332.485
  C     -176.268     297.866    -334.195
  O     -176.624     297.046    -335.294
  C     -175.591     299.183    -334.560
  O     -176.125     299.755    -335.760
  C     -175.898     300.085    -333.359
  N     -173.002     303.902    -331.667
  C     -174.293     303.943    -332.175
  N     -174.791     305.176    -332.429
  N     -175.008     302.872    -332.422
  C     -174.336     301.718    -332.203
  C     -173.073     301.550    -331.692
  C     -172.307     302.737    -331.383
  O     -171.134     302.745    -331.016
  N     -172.689     300.224    -331.678
  C     -173.716     299.591    -332.219
  N     -174.725     300.461    -332.587
  O     -176.907     295.567    -329.253
  O     -174.522     296.119    -329.784
  H     -175.788     300.668    -335.828
  H     -174.515     295.159    -329.599
  H     -172.472     304.760    -331.572
  H     -173.761     298.529    -332.392
  H     -176.373     301.017    -333.685
  H     -174.516     299.035    -334.740
  H     -174.215     306.006    -332.392
  H     -175.489     297.287    -333.677
  H     -175.656     305.234    -332.955
  H     -178.289     298.500    -333.552
  H     -178.068     297.419    -331.266
  H     -177.928     296.251    -332.565
  P     -175.724     296.718    -336.567
  C     -177.555     295.286    -337.625
  O     -176.689     296.394    -337.798
  O     -175.070     295.295    -336.227
  O     -174.651     297.719    -336.858
  H     -174.256     295.168    -336.760
  H     -177.942     294.971    -338.596
  H     -178.400     295.586    -336.999
  H     -177.032     294.447    -337.157
  H     -175.871     299.363    -327.795
  H     -174.927     297.902    -327.635
  H     -176.660     297.851    -327.418

 3  4  5  6  7  8  9  10  11  12  23  26  30  31 0
 6-311+G(2d,p)
 ****
 33  35  36  37  38 0
 6-311+G(2d,p)
 ****
 1  2  13  14  15  16  17  18  19  20  21  22  24  25 0
 3-21G
 ****
 27  28  29  32  34  39  40  41  42  43  44  45  46  47  48  49 0
 3-21G
 ****


