%nproc=1
%NoSave
%Mem=1900MB
#P OB98/GEN NMR

erre ene a

0 1
  C     1057.505    -255.489    -222.328
  O     1057.440    -254.128    -222.709
  P     1057.764    -253.716    -224.236
  C     1057.920    -251.214    -223.648
  O     1058.594    -252.338    -224.195
  C     1058.896    -250.056    -223.463
  O     1059.814    -250.341    -222.372
  C     1059.783    -249.783    -224.666
  O     1059.062    -249.097    -225.680
  C     1060.916    -248.978    -224.029
  O     1060.520    -247.605    -223.889
  C     1061.044    -249.644    -222.669
  N     1065.058    -251.122    -219.866
  C     1064.219    -250.060    -219.748
  N     1063.191    -249.712    -220.564
  C     1063.088    -250.589    -221.594
  C     1063.879    -251.681    -221.838
  C     1064.902    -251.968    -220.917
  N     1065.717    -253.077    -220.980
  N     1063.468    -252.316    -223.010
  C     1062.459    -251.601    -223.448
  N     1062.153    -250.580    -222.590
  O     1056.597    -253.727    -225.163
  O     1058.865    -254.793    -224.691
  H     1059.913    -247.553    -223.118
  H     1058.523    -255.289    -225.446
  H     1064.398    -249.410    -218.902
  H     1061.906    -251.785    -224.365
  H     1061.190    -248.904    -221.868
  H     1061.845    -249.009    -224.624
  H     1060.191    -250.722    -225.050
  H     1058.327    -249.161    -223.201
  H     1057.506    -251.506    -222.671
  H     1066.304    -253.258    -220.184
  H     1065.419    -253.865    -221.556
  H     1057.095    -250.921    -224.313
  P     1058.701    -249.850    -227.033
  C     1057.869    -247.824    -228.405
  O     1058.896    -248.800    -228.222
  O     1057.382    -250.578    -227.051
  O     1059.930    -250.864    -227.267
  H     1059.601    -251.671    -227.713
  H     1057.032    -248.292    -228.909
  H     1058.256    -247.006    -228.986
  H     1057.552    -247.444    -227.413
  H     1057.263    -255.581    -221.290
  H     1058.494    -255.860    -222.498
  H     1056.807    -256.056    -222.908

 3  4  5  6  7  8  9  10  11  12  22  25  29  30  31  32 0
 6-311+G(2d,p)
 ****
 33  36  37 0
 6-311+G(2d,p)
 ****
 1  2  13  14  15  16  17  18  19  20  21  23  24  26 0
 3-21G
 ****
 27  28  34  35  38  39  40  41  42  43  44  45  46  47  48 0
 3-21G
 ****


