%nproc=1
%NoSave
%Mem=1900MB
#P OB98/GEN NMR

erre ene a

0 1
  C      -48.671    -175.586    -255.780
  O      -47.491    -175.763    -256.567
  P      -47.615    -175.508    -258.153
  C      -48.493    -177.964    -258.395
  O      -48.682    -176.590    -258.684
  C      -48.681    -178.824    -259.651
  O      -50.104    -178.892    -259.985
  C      -47.938    -178.311    -260.883
  O      -47.475    -179.466    -261.605
  C      -49.021    -177.597    -261.677
  O      -48.691    -177.483    -263.056
  C      -50.227    -178.497    -261.372
  N      -51.502    -177.844    -261.632
  C      -51.826    -177.596    -262.963
  O      -51.055    -177.833    -263.894
  N      -53.049    -177.018    -263.191
  C      -53.923    -176.599    -262.227
  O      -55.009    -176.089    -262.483
  C      -53.479    -176.780    -260.834
  C      -52.309    -177.382    -260.608
  O      -46.207    -176.054    -258.670
  O      -47.916    -174.087    -258.493
  H      -45.886    -176.833    -258.187
  H      -48.697    -178.372    -263.453
  H      -53.314    -176.860    -264.149
  H      -54.121    -176.408    -260.047
  H      -51.938    -177.511    -259.597
  H      -50.172    -179.415    -261.976
  H      -49.177    -176.594    -261.274
  H      -47.085    -177.672    -260.635
  H      -48.361    -179.847    -259.413
  H      -49.219    -178.285    -257.642
  H      -47.498    -178.107    -257.963
  P      -46.207    -180.273    -261.016
  C      -44.366    -179.740    -262.804
  O      -44.893    -179.505    -261.518
  O      -46.247    -181.576    -261.962
  O      -46.290    -180.611    -259.563
  H      -46.352    -181.360    -262.906
  H      -43.628    -178.965    -263.033
  H      -45.154    -179.707    -263.569
  H      -43.871    -180.715    -262.834
  H      -48.448    -175.786    -254.753
  H      -49.430    -176.260    -256.118
  H      -49.019    -174.579    -255.880

 3  4  5  6  7  8  9  10  11  12  13  24  28  29  30  31  32 0
 6-311+G(2d,p)
 ****
 33  34 0
 6-311+G(2d,p)
 ****
 1  2  14  15  16  17  18  19  20  21  22  23  25  26  27 0
 3-21G
 ****
 35  36  37  38  39  40  41  42  43  44  45 0
 3-21G
 ****


