%nproc=1
%NoSave
%Mem=1900MB
#P OB98/GEN NMR

erre ene a

0 1
  C      279.862    -114.420    -151.704
  O      279.134    -114.386    -152.924
  P      278.561    -112.979    -153.429
  C      276.026    -113.518    -153.308
  O      277.153    -113.272    -154.138
  C      274.789    -113.858    -154.141
  O      274.299    -112.632    -154.772
  C      275.020    -114.876    -155.262
  O      273.823    -115.640    -155.405
  C      275.215    -114.010    -156.481
  O      274.988    -114.723    -157.705
  C      274.209    -112.897    -156.190
  N      272.711    -109.906    -160.059
  C      272.186    -111.042    -159.556
  N      272.641    -111.782    -158.516
  C      273.762    -111.229    -157.995
  C      274.424    -110.100    -158.440
  C      273.855    -109.417    -159.523
  N      274.374    -108.254    -160.046
  N      275.553    -109.874    -157.677
  C      275.577    -110.856    -156.794
  N      274.496    -111.690    -156.929
  O      279.529    -112.620    -154.649
  O      278.544    -111.891    -152.407
  H      275.714    -115.366    -157.819
  H      280.088    -111.844    -154.422
  H      271.273    -111.404    -160.035
  H      276.336    -110.999    -156.039
  H      273.183    -113.199    -156.423
  H      276.238    -113.625    -156.514
  H      275.875    -115.554    -155.078
  H      273.999    -114.207    -153.463
  H      275.820    -112.615    -152.727
  H      273.835    -107.745    -160.721
  H      275.113    -107.782    -159.532
  H      276.248    -114.341    -152.623
  P      273.847    -117.154    -154.880
  C      272.461    -117.973    -156.914
  O      272.568    -117.892    -155.502
  O      273.469    -117.012    -153.316
  O      275.155    -117.846    -155.075
  H      273.869    -117.746    -152.824
  H      271.956    -118.910    -157.182
  H      273.440    -117.945    -157.405
  H      271.859    -117.135    -157.281
  H      280.176    -115.423    -151.504
  H      279.237    -114.076    -150.906
  H      280.721    -113.787    -151.783

 3  4  5  6  7  8  9  10  11  12  22  25  29  30  31  32 0
 6-311+G(2d,p)
 ****
 33  36  37 0
 6-311+G(2d,p)
 ****
 1  2  13  14  15  16  17  18  19  20  21  23  24  26 0
 3-21G
 ****
 27  28  34  35  38  39  40  41  42  43  44  45  46  47  48 0
 3-21G
 ****


