%nproc=1
%NoSave
%Mem=1900MB
#P OB98/GEN NMR

erre ene a

0 1
  C      657.813     586.471     203.264
  O      657.973     585.960     204.577
  H      658.735     586.291     202.710
  H      657.636     587.549     203.298
  H      656.990     585.970     202.751
  P      656.714     586.012     205.579
  C      658.113     586.311     207.714
  O      657.240     585.455     206.997
  C      658.659     585.602     208.947
  O      657.547     585.114     209.740
  C      659.556     584.395     208.633
  O      660.625     584.365     209.586
  C      658.653     583.204     208.825
  O      659.370     582.023     209.169
  C      657.734     583.694     209.948
  N      654.280     581.463     212.880
  C      655.423     582.143     213.219
  N      655.723     582.213     214.544
  N      656.221     582.697     212.351
  C      655.806     582.556     211.069
  C      654.682     581.907     210.609
  C      653.818     581.283     211.575
  O      652.789     580.658     211.339
  N      654.612     581.951     209.230
  C      655.688     582.633     208.874
  N      656.452     583.010     209.940
  O      655.471     585.353     205.079
  O      656.498     587.573     205.847
  H      658.715     581.365     209.481
  H      655.764     587.914     205.303
  H      653.699     581.045     213.597
  H      655.966     582.859     207.840
  H      658.163     583.548     210.950
  H      658.082     583.006     207.911
  H      655.140     581.829     215.269
  H      659.978     584.438     207.616
  H      656.555     582.738     214.810
  H      659.196     586.334     209.573
  H      657.549     587.203     208.023
  H      658.947     586.621     207.066
  P      661.953     585.211     209.297
  C      662.964     583.440     210.878
  O      663.073     584.764     210.365
  O      661.759     586.687     209.154
  O      662.503     584.564     207.930
  H      662.986     585.255     207.432
  H      663.758     583.260     211.573
  H      663.030     582.739     210.072
  H      662.023     583.326     211.374

 6  7  8  9  10  11  12  13  14  15  26  29  33  34 0
 6-311+G(2d,p)
 ****
 36  38  39  40  41 0
 6-311+G(2d,p)
 ****
 1  2  3  4  5  16  17  18  19  20  21  22  23  24  25 0
 3-21G
 ****
 27  28  30  31  32  35  37  42  43  44  45  46  47 0
 3-21G
 ****
 48  49 0
 3-21G
 ****


