%nproc=1
%NoSave
%Mem=1900MB
#P OB98/GEN NMR

erre ene a

0 1
  C       56.784    -161.793      19.453
  O       55.875    -162.851      19.155
  P       54.612    -163.078      20.116
  C       54.107    -164.233      22.365
  O       55.082    -163.978      21.359
  C       53.992    -165.734      22.644
  O       53.426    -166.442      21.524
  C       55.332    -166.398      22.909
  O       55.817    -166.074      24.200
  C       54.984    -167.867      22.696
  O       54.384    -168.429      23.874
  C       53.943    -167.792      21.554
  N       54.481    -168.189      20.260
  C       53.736    -169.141      19.553
  O       52.716    -169.623      20.045
  N       54.179    -169.531      18.312
  C       55.271    -169.023      17.828
  N       55.659    -169.443      16.594
  C       56.088    -168.026      18.546
  C       55.644    -167.664      19.748
  O       53.358    -163.528      19.441
  O       54.417    -161.634      20.792
  H       54.103    -169.333      23.628
  H       53.470    -161.507      20.999
  H       56.989    -167.628      18.097
  H       56.187    -166.939      20.346
  H       53.090    -168.445      21.777
  H       55.871    -168.465      22.468
  H       56.058    -166.078      22.148
  H       53.331    -165.870      23.512
  H       55.087    -170.135      16.125
  H       53.138    -163.839      22.042
  H       56.465    -169.072      16.110
  H       54.383    -163.682      23.272
  P       56.972    -164.966      24.305
  C       59.508    -164.851      23.780
  O       58.356    -165.664      23.906
  O       57.111    -164.743      25.888
  O       56.673    -163.678      23.604
  H       57.339    -163.813      26.069
  H       60.394    -165.496      23.822
  H       59.570    -164.116      24.587
  H       59.493    -164.337      22.816
  H       57.565    -161.777      18.722
  H       57.207    -161.949      20.423
  H       56.262    -160.859      19.438

 3  4  5  6  7  8  9  10  11  12  13  23  27  28  29  30  32 0
 6-311+G(2d,p)
 ****
 34  35 0
 6-311+G(2d,p)
 ****
 1  2  14  15  16  17  18  19  20  21  22  24  25  26 0
 3-21G
 ****
 31  33  36  37  38  39  40  41  42  43  44  45  46 0
 3-21G
 ****


