%nproc=1
%NoSave
%Mem=1900MB
#P OB98/GEN NMR

erre ene a

0 1
  C     -889.610    -446.305    -578.173
  O     -890.770    -445.768    -577.553
  H     -889.600    -447.382    -578.018
  H     -888.710    -445.870    -577.729
  H     -889.640    -446.102    -579.253
  P     -891.080    -444.218    -577.817
  C     -893.620    -443.900    -577.249
  O     -892.630    -444.150    -578.223
  C     -894.520    -445.124    -577.038
  O     -893.690    -446.215    -576.539
  C     -895.660    -444.905    -576.048
  O     -896.800    -445.657    -576.496
  C     -895.130    -445.518    -574.760
  O     -896.190    -445.889    -573.872
  C     -894.290    -446.687    -575.300
  N     -893.280    -447.128    -574.347
  C     -893.270    -448.488    -574.029
  O     -894.100    -449.256    -574.537
  N     -892.350    -448.957    -573.120
  C     -891.560    -448.121    -572.518
  N     -890.680    -448.631    -571.611
  C     -891.570    -446.659    -572.797
  C     -892.430    -446.244    -573.709
  O     -890.310    -443.962    -579.202
  O     -890.670    -443.304    -576.708
  H     -896.660    -446.661    -574.263
  H     -890.450    -444.672    -579.858
  H     -890.880    -446.008    -572.261
  H     -892.490    -445.197    -573.985
  H     -894.930    -447.541    -575.556
  H     -894.490    -444.795    -574.242
  H     -895.930    -443.859    -575.944
  H     -894.900    -445.458    -578.020
  H     -890.740    -449.640    -571.440
  H     -894.250    -443.052    -577.551
  H     -890.070    -448.076    -571.050
  H     -893.120    -443.632    -576.308
  P     -897.970    -444.906    -577.267
  C     -897.950    -446.046    -579.599
  O     -897.650    -444.874    -578.849
  O     -898.420    -443.606    -576.691
  O     -899.180    -445.980    -577.203
  H     -900.000    -445.491    -577.024
  H     -897.691    -445.889    -580.625
  H     -898.996    -446.259    -579.524
  H     -897.389    -446.871    -579.212

 6  7  8  9  10  11  12  13  14  15  16  26  30  31  32  33  35 0
 6-311+G(2d,p)
 ****
 37  38 0
 6-311+G(2d,p)
 ****
 1  2  3  4  5  17  18  19  20  21  22  23  24  25 0
 3-21G
 ****
 27  28  29  34  36  39  40  41  42  43  44  45  46 0
 3-21G
 ****


