%nproc=1
%NoSave
%Mem=1900MB
#P OB98/GEN NMR

erre ene a

0 1
  C     -139.166      71.184      31.105
  O     -138.396      69.995      31.046
  P     -139.071      68.688      30.411
  C     -140.419      66.660      31.311
  O     -139.937      67.973      31.558
  C     -140.945      66.022      32.598
  O     -139.877      65.953      33.578
  C     -142.100      66.798      33.239
  O     -142.999      65.875      33.871
  C     -141.424      67.594      34.336
  O     -142.345      67.956      35.364
  C     -140.338      66.613      34.774
  N     -138.274      67.589      39.282
  C     -139.239      66.662      38.942
  N     -139.788      65.964      39.959
  N     -139.628      66.437      37.715
  C     -138.996      67.215      36.802
  C     -138.013      68.156      37.015
  C     -137.603      68.403      38.380
  O     -136.775      69.228      38.750
  N     -137.591      68.715      35.838
  C     -138.344      68.150      34.915
  N     -139.236      67.260      35.455
  O     -137.823      67.703      30.214
  O     -139.780      68.916      29.120
  H     -142.925      68.648      34.994
  H     -137.583      67.658      29.270
  H     -138.018      67.734      40.245
  H     -138.302      68.365      33.856
  H     -140.739      65.841      35.442
  H     -140.995      68.514      33.923
  H     -139.581      66.137      40.931
  H     -142.661      67.433      32.545
  H     -140.530      65.311      39.741
  H     -141.247      64.992      32.380
  H     -139.605      66.050      30.918
  H     -141.214      66.697      30.558
  P     -144.538      66.329      33.940
  C     -145.845      68.069      35.366
  O     -144.627      67.393      35.131
  O     -145.276      65.037      34.528
  O     -145.107      66.764      32.631
  H     -146.211      65.028      34.252
  H     -146.214      67.799      36.360
  H     -146.609      67.819      34.624
  H     -145.666      69.147      35.335
  H     -138.585      71.964      31.551
  H     -140.043      71.012      31.693
  H     -139.452      71.473      30.115

 3  4  5  6  7  8  9  10  11  12  23  26  30  31 0
 6-311+G(2d,p)
 ****
 33  35  36  37  38 0
 6-311+G(2d,p)
 ****
 1  2  13  14  15  16  17  18  19  20  21  22  24  25 0
 3-21G
 ****
 27  28  29  32  34  39  40  41  42  43  44  45  46  47  48  49 0
 3-21G
 ****


