%nproc=1
%NoSave
%Mem=1900MB
#P OB98/GEN NMR

erre ene a

0 1
  C      -55.469      -3.384      26.557
  O      -56.554      -2.818      27.280
  P      -56.200      -1.802      28.475
  C      -55.179      -2.199      30.831
  O      -55.969      -2.723      29.769
  C      -55.555      -2.859      32.154
  O      -56.927      -2.567      32.484
  C      -55.446      -4.377      32.157
  O      -54.117      -4.820      32.374
  C      -56.323      -4.726      33.349
  O      -55.592      -4.515      34.571
  C      -57.454      -3.699      33.226
  N      -62.462      -4.643      33.644
  C      -61.556      -4.186      34.533
  N      -60.237      -3.971      34.348
  C      -59.868      -4.318      33.103
  C      -60.673      -4.835      32.101
  C      -62.036      -4.987      32.404
  N      -62.964      -5.426      31.487
  N      -59.937      -5.071      30.962
  C      -58.713      -4.696      31.263
  N      -58.622      -4.224      32.543
  O      -57.605      -1.095      28.772
  O      -55.127      -0.816      28.169
  H      -55.238      -3.605      34.536
  H      -57.459      -0.230      29.201
  H      -61.943      -3.952      35.521
  H      -57.868      -4.739      30.589
  H      -57.784      -3.323      34.200
  H      -56.647      -5.771      33.347
  H      -55.879      -4.809      31.245
  H      -54.920      -2.427      32.939
  H      -55.353      -1.122      30.907
  H      -63.940      -5.333      31.721
  H      -62.680      -5.488      30.516
  H      -54.121      -2.369      30.606
  P      -53.604      -6.043      31.467
  C      -54.569      -8.426      31.089
  O      -54.448      -7.314      31.955
  O      -52.131      -6.315      32.026
  O      -53.615      -5.762      30.002
  H      -51.576      -6.732      31.339
  H      -54.889      -9.292      31.674
  H      -53.613      -8.661      30.612
  H      -55.321      -8.219      30.323
  H      -55.848      -4.036      25.797
  H      -54.846      -3.940      27.226
  H      -54.896      -2.602      26.103

 3  4  5  6  7  8  9  10  11  12  22  25  29  30  31  32 0
 6-311+G(2d,p)
 ****
 33  36  37 0
 6-311+G(2d,p)
 ****
 1  2  13  14  15  16  17  18  19  20  21  23  24  26 0
 3-21G
 ****
 27  28  34  35  38  39  40  41  42  43  44  45  46  47  48 0
 3-21G
 ****


