%nproc=1
%NoSave
%Mem=1900MB
#P OB98/GEN NMR

erre ene a

0 1
  C     -237.695    -427.654    -215.762
  O     -237.461    -428.271    -217.012
  H     -238.755    -427.756    -215.513
  H     -237.445    -426.591    -215.819
  H     -237.099    -428.136    -214.981
  P     -235.941    -428.315    -217.525
  C     -236.486    -427.334    -219.864
  O     -236.009    -428.451    -219.126
  C     -237.275    -427.794    -221.091
  O     -238.563    -428.320    -220.653
  C     -237.557    -426.680    -222.110
  O     -237.517    -427.260    -223.422
  C     -238.998    -426.300    -221.807
  O     -239.640    -425.656    -222.907
  C     -239.569    -427.672    -221.451
  N     -244.110    -425.500    -221.568
  C     -243.062    -425.449    -222.473
  N     -243.257    -424.701    -223.584
  N     -241.931    -426.074    -222.306
  C     -241.888    -426.810    -221.168
  C     -242.846    -426.941    -220.192
  C     -244.091    -426.222    -220.376
  O     -245.042    -426.215    -219.602
  N     -242.411    -427.757    -219.175
  C     -241.192    -428.117    -219.542
  N     -240.829    -427.568    -220.740
  O     -235.451    -429.763    -217.044
  O     -235.059    -427.229    -217.013
  H     -239.567    -426.247    -223.685
  H     -235.016    -429.701    -216.175
  H     -244.958    -424.991    -221.741
  H     -240.535    -428.765    -218.975
  H     -239.755    -428.286    -222.338
  H     -239.034    -425.625    -220.944
  H     -244.120    -424.232    -223.800
  H     -236.867    -425.832    -222.058
  H     -242.521    -424.684    -224.279
  H     -236.737    -428.625    -221.558
  H     -235.633    -426.732    -220.192
  H     -237.127    -426.722    -219.216
  P     -236.251    -426.943    -224.349
  C     -237.846    -426.322    -226.309
  O     -236.712    -427.059    -225.879
  O     -235.333    -428.241    -224.156
  O     -235.522    -425.688    -223.985
  H     -234.395    -428.004    -224.289
  H     -238.019    -426.508    -227.348
  H     -237.671    -425.277    -226.158
  H     -238.703    -426.625    -225.745

 6  7  8  9  10  11  12  13  14  15  26  29  33  34 0
 6-311+G(2d,p)
 ****
 36  38  39  40  41 0
 6-311+G(2d,p)
 ****
 1  2  3  4  5  16  17  18  19  20  21  22  23  24  25 0
 3-21G
 ****
 27  28  30  31  32  35  37  42  43  44  45  46  47 0
 3-21G
 ****
 48  49 0
 3-21G
 ****


