%nproc=1
%NoSave
%Mem=1900MB
#P OB98/GEN NMR

erre ene a

0 1
  C     -143.231     124.844    -192.969
  O     -142.932     126.223    -193.252
  P     -142.982     126.857    -194.726
  C     -143.868     129.071    -195.736
  O     -143.333     128.417    -194.586
  C     -144.025     130.583    -195.479
  O     -145.131     130.813    -194.565
  C     -142.834     131.260    -194.807
  O     -141.743     131.425    -195.696
  C     -143.476     132.560    -194.335
  O     -143.494     133.550    -195.376
  C     -144.916     132.133    -193.993
  N     -145.187     132.131    -192.564
  C     -145.984     133.175    -192.084
  O     -146.349     134.078    -192.835
  N     -146.335     133.168    -190.747
  C     -145.840     132.267    -189.949
  N     -146.237     132.304    -188.651
  C     -144.888     131.227    -190.399
  C     -144.618     131.214    -191.706
  O     -143.882     126.123    -195.675
  O     -141.466     126.850    -195.247
  H     -141.456     126.813    -196.219
  H     -143.833     134.380    -194.977
  H     -144.477     130.522    -189.700
  H     -143.943     130.477    -192.118
  H     -145.633     132.787    -194.502
  H     -142.927     132.996    -193.488
  H     -142.527     130.664    -193.939
  H     -144.256     131.067    -196.435
  H     -146.902     133.022    -188.382
  H     -144.851     128.641    -195.954
  H     -145.931     131.636    -187.957
  H     -143.207     128.890    -196.597
  P     -140.358     130.739    -195.276
  C     -137.980     130.611    -196.318
  O     -139.218     131.296    -196.256
  O     -140.537     129.211    -195.724
  O     -140.028     130.839    -193.819
  H     -140.137     128.615    -195.059
  H     -137.534     130.780    -197.303
  H     -138.095     129.536    -196.152
  H     -137.307     131.026    -195.555
  H     -143.128     124.665    -191.919
  H     -142.553     124.214    -193.506
  H     -144.234     124.627    -193.271

 3  4  5  6  7  8  9  10  11  12  13  24  27  28  29  30  32 0
 6-311+G(2d,p)
 ****
 34  35 0
 6-311+G(2d,p)
 ****
 1  2  14  15  16  17  18  19  20  21  22  23  25  26 0
 3-21G
 ****
 31  33  36  37  38  39  40  41  42  43  44  45  46 0
 3-21G
 ****


