%nproc=1
%NoSave
%Mem=1900MB
#P OB98/GEN NMR

erre ene a

0 1
  C       98.154    -165.899      90.196
  O       99.216    -165.748      91.143
  P      100.381    -166.843      91.291
  C      102.176    -165.636      92.674
  O      101.170    -166.644      92.678
  C      101.611    -164.217      92.825
  O      100.754    -164.120      93.996
  C      102.666    -163.110      92.961
  O      102.094    -161.943      92.367
  C      102.765    -162.948      94.468
  O      103.347    -161.716      94.869
  C      101.301    -163.107      94.863
  N      100.860    -161.351      99.653
  C      100.820    -160.721      98.458
  N      100.907    -161.261      97.226
  C      101.007    -162.599      97.294
  C      101.050    -163.379      98.437
  C      100.984    -162.698      99.667
  N      101.072    -163.329     100.886
  N      101.190    -164.716      98.114
  C      101.239    -164.735      96.797
  N      101.129    -163.481      96.254
  O      101.274    -166.951      90.096
  O       99.598    -168.224      91.509
  H      102.887    -160.995      94.402
  H       99.995    -168.910      90.940
  H      100.711    -159.640      98.498
  H      101.374    -165.620      96.189
  H      100.738    -162.181      94.690
  H      103.386    -163.755      94.878
  H      103.623    -163.360      92.495
  H      100.971    -164.024      91.955
  H      102.732    -165.705      91.732
  H      101.110    -162.748     101.708
  H      101.294    -164.313     100.917
  H      102.879    -165.840      93.491
  P      102.931    -161.009      91.371
  C      101.129    -160.483      89.633
  O      101.889    -159.985      90.718
  O      103.784    -161.743      90.390
  O      103.812    -160.078      92.334
  H      104.556    -159.702      91.829
  H      101.750    -160.515      88.732
  H      100.280    -159.819      89.457
  H      100.752    -161.488      89.848
  H       97.493    -165.061      90.265
  H       97.613    -166.798      90.407
  H       98.562    -165.951      89.208

 3  4  5  6  7  8  9  10  11  12  22  25  29  30  31  32 0
 6-311+G(2d,p)
 ****
 33  36  37 0
 6-311+G(2d,p)
 ****
 1  2  13  14  15  16  17  18  19  20  21  23  24  26 0
 3-21G
 ****
 27  28  34  35  38  39  40  41  42  43  44  45  46  47  48 0
 3-21G
 ****


