%nproc=1
%NoSave
%Mem=1900MB
#P OB98/GEN NMR

erre ene a

0 1
  C        9.172    -111.534    -127.855
  O        9.050    -112.933    -128.018
  H        8.727    -111.225    -126.905
  H       10.232    -111.272    -127.849
  H        8.684    -111.011    -128.683
  P        7.558    -113.520    -128.082
  C        8.351    -115.233    -126.304
  O        7.642    -115.017    -127.514
  C        8.001    -116.600    -125.725
  O        8.697    -116.807    -124.480
  C        6.522    -116.797    -125.406
  O        5.769    -117.109    -126.567
  C        6.593    -117.980    -124.453
  O        6.759    -119.198    -125.202
  C        7.871    -117.673    -123.657
  N        6.306    -118.333    -118.832
  C        6.526    -119.208    -119.837
  N        6.962    -118.960    -121.089
  C        7.197    -117.648    -121.255
  C        7.043    -116.639    -120.320
  C        6.568    -117.021    -119.055
  N        6.283    -116.105    -118.054
  N        7.370    -115.412    -120.865
  C        7.697    -115.677    -122.113
  N        7.615    -117.014    -122.393
  O        7.324    -113.720    -129.656
  O        6.508    -112.654    -127.473
  H        7.161    -119.848    -124.595
  H        6.837    -112.952    -130.007
  H        6.318    -120.248    -119.607
  H        7.992    -114.939    -122.844
  H        8.457    -118.576    -123.451
  H        5.694    -118.095    -123.843
  H        6.107    -115.933    -124.874
  H        8.351    -117.364    -126.431
  H        8.084    -114.456    -125.580
  H        5.549    -116.412    -117.423
  H        6.244    -115.143    -118.367
  H        9.424    -115.172    -126.510
  P        4.398    -116.311    -126.805
  C        3.188    -118.184    -125.495
  O        3.214    -117.387    -126.672
  O        4.443    -115.985    -128.371
  O        4.237    -115.068    -125.999
  H        4.355    -115.022    -128.511
  H        2.354    -118.853    -125.536
  H        3.096    -117.551    -124.637
  H        4.095    -118.748    -125.426

 6  7  8  9  10  11  12  13  14  15  25  28  32  33  34  35 0
 6-311+G(2d,p)
 ****
 36  39  40 0
 6-311+G(2d,p)
 ****
 1  2  3  4  5  16  17  18  19  20  21  22  23  24 0
 3-21G
 ****
 26  27  29  30  31  37  38  41  42  43  44  45  46  47  48 0
 3-21G
 ****


