%nproc=1
%NoSave
%Mem=1900MB
#P OB98/GEN NMR

erre ene a

0 1
  C       35.043      88.641     160.124
  O       34.933      88.534     158.718
  H       35.728      89.460     160.357
  H       35.444      87.717     160.549
  H       34.069      88.865     160.567
  P       34.012      87.372     158.111
  C       35.966      85.754     157.620
  O       34.791      85.995     158.385
  C       36.617      84.441     158.047
  O       37.167      84.561     159.373
  C       35.659      83.249     158.085
  O       35.480      82.710     156.787
  C       36.423      82.311     159.005
  O       37.504      81.692     158.278
  C       36.990      83.287     160.053
  N       36.876      83.633     165.117
  C       37.914      83.280     164.277
  N       39.077      82.941     164.872
  N       37.816      83.249     162.972
  C       36.575      83.542     162.522
  C       35.463      83.890     163.255
  C       35.603      83.985     164.693
  O       34.713      84.319     165.474
  N       34.355      84.025     162.457
  C       34.809      83.812     161.236
  N       36.153      83.505     161.220
  O       33.579      87.550     156.687
  O       32.766      87.291     159.113
  H       37.982      81.121     158.907
  H       32.034      87.861     158.812
  H       37.008      83.631     166.115
  H       34.215      83.872     160.331
  H       37.973      82.971     160.422
  H       35.801      81.507     159.404
  H       39.172      82.801     165.866
  H       34.708      83.513     158.559
  H       39.833      82.624     164.274
  H       37.457      84.246     157.366
  H       36.649      86.593     157.790
  H       35.724      85.712     156.552
  P       34.145      81.906     156.389
  C       35.500      79.761     156.897
  O       34.288      80.471     157.090
  O       33.854      81.860     154.929
  O       32.996      82.589     157.264
  H       32.611      83.396     156.836
  H       35.454      78.828     157.419
  H       36.317      80.340     157.274
  H       35.644      79.579     155.853

 6  7  8  9  10  11  12  13  14  15  26  29  33  34 0
 6-311+G(2d,p)
 ****
 36  38  39  40  41 0
 6-311+G(2d,p)
 ****
 1  2  3  4  5  16  17  18  19  20  21  22  23  24  25 0
 3-21G
 ****
 27  28  30  31  32  35  37  42  43  44  45  46  47 0
 3-21G
 ****
 48  49 0
 3-21G
 ****


