%nproc=1
%NoSave
%Mem=1900MB
#P OB98/GEN NMR

erre ene a

0 1
  C     -894.620     818.558    1054.679
  O     -895.140     817.970    1055.849
  H     -895.170     818.198    1053.825
  H     -893.560     818.294    1054.569
  H     -894.720     819.663    1054.744
  P     -894.400     818.282    1057.234
  C     -895.580     820.606    1057.330
  O     -895.280     819.383    1058.006
  C     -896.460     821.485    1058.232
  O     -897.760     820.833    1058.444
  C     -895.900     821.714    1059.610
  O     -894.890     822.697    1059.637
  C     -897.140     822.143    1060.374
  O     -897.400     823.551    1060.228
  C     -898.250     821.286    1059.723
  N     -898.660     820.171    1060.573
  C     -899.240     820.541    1061.801
  O     -899.420     821.700    1062.146
  N     -899.570     819.485    1062.595
  C     -899.360     818.161    1062.363
  O     -899.620     817.284    1063.175
  C     -898.700     817.853    1061.070
  C     -898.400     818.865    1060.242
  O     -893.090     819.110    1056.766
  O     -894.050     817.086    1058.052
  H     -892.310     818.540    1056.852
  H     -897.520     823.707    1059.278
  H     -900.000     819.712    1063.496
  H     -898.530     816.807    1060.848
  H     -897.920     818.665    1059.297
  H     -899.130     821.925    1059.518
  H     -897.010     821.961    1061.450
  H     -895.530     820.764    1060.040
  H     -896.660     822.431    1057.717
  H     -896.150     820.372    1056.397
  H     -894.660     821.123    1057.058
  P     -893.900     822.740    1060.899
  C     -891.980     821.452    1059.605
  O     -892.400     822.606    1060.312
  O     -894.170     821.298    1061.570
  O     -894.130     823.908    1061.798
  H     -894.480     820.649    1060.901
  H     -890.959     821.569    1059.306
  H     -892.593     821.323    1058.737
  H     -892.071     820.594    1060.237

 6  7  8  9  10  11  12  13  14  15  16  27  31  32  33  34  35 0
 6-311+G(2d,p)
 ****
 36  37 0
 6-311+G(2d,p)
 ****
 1  2  3  4  5  17  18  19  20  21  22  23  24  25 0
 3-21G
 ****
 26  28  29  30  38  39  40  41  42  43  44  45 0
 3-21G
 ****


