%nproc=1
%NoSave
%Mem=1900MB
#P OB98/GEN NMR

erre ene a

0 1
  C     1209.323    -548.630     -94.506
  O     1209.883    -547.571     -93.742
  H     1209.239    -548.302     -95.540
  H     1208.335    -548.889     -94.134
  H     1209.977    -549.510     -94.463
  P     1210.109    -547.804     -92.170
  C     1211.915    -547.075     -90.474
  O     1211.577    -547.240     -91.848
  C     1212.761    -545.819     -90.296
  O     1213.995    -545.927     -91.032
  C     1212.087    -544.534     -90.794
  O     1211.168    -544.054     -89.822
  C     1213.287    -543.641     -90.978
  O     1213.753    -543.159     -89.696
  C     1214.317    -544.629     -91.575
  N     1216.687    -543.269     -95.855
  C     1216.966    -542.948     -94.538
  N     1217.994    -542.088     -94.350
  N     1216.286    -543.382     -93.524
  C     1215.224    -544.157     -93.863
  C     1214.844    -544.545     -95.137
  C     1215.625    -544.094     -96.253
  O     1215.425    -544.376     -97.434
  N     1213.688    -545.288     -95.096
  C     1213.409    -545.379     -93.811
  N     1214.316    -544.706     -93.036
  O     1209.873    -549.205     -91.668
  O     1209.139    -546.742     -91.470
  H     1214.645    -542.809     -89.848
  H     1208.264    -547.139     -91.277
  H     1217.228    -542.877     -96.610
  H     1212.558    -545.942     -93.401
  H     1215.344    -544.389     -91.276
  H     1213.089    -542.765     -91.601
  H     1218.363    -541.511     -95.089
  H     1211.602    -544.680     -91.763
  H     1218.198    -541.803     -93.397
  H     1213.019    -545.733     -89.235
  H     1212.477    -547.957     -90.156
  H     1211.006    -546.988     -89.871
  P     1209.888    -543.188     -90.243
  C     1207.520    -542.845     -89.241
  O     1208.763    -543.538     -89.139
  O     1209.446    -543.383     -91.671
  O     1210.264    -541.676     -89.883
  H     1210.728    -541.202     -90.613
  H     1206.867    -543.166     -88.456
  H     1207.070    -543.057     -90.188
  H     1207.691    -541.792     -89.155

 6  7  8  9  10  11  12  13  14  15  26  29  33  34 0
 6-311+G(2d,p)
 ****
 36  38  39  40  41 0
 6-311+G(2d,p)
 ****
 1  2  3  4  5  16  17  18  19  20  21  22  23  24  25 0
 3-21G
 ****
 27  28  30  31  32  35  37  42  43  44  45  46  47 0
 3-21G
 ****
 48  49 0
 3-21G
 ****


