%nproc=1
%NoSave
%Mem=1900MB
#P OB98/GEN NMR

erre ene a

0 1
  C       65.340    -186.592    -660.167
  O       64.998    -187.893    -660.601
  H       64.487    -186.130    -659.657
  H       66.175    -186.661    -659.468
  H       65.646    -185.976    -661.017
  P       63.767    -187.997    -661.631
  C       61.798    -187.677    -659.981
  O       62.575    -187.103    -661.022
  C       60.365    -187.159    -660.043
  O       59.604    -187.795    -658.979
  C       60.244    -185.626    -659.874
  O       59.432    -185.068    -660.914
  C       59.516    -185.464    -658.547
  O       58.640    -184.337    -658.537
  C       58.758    -186.779    -658.416
  N       55.032    -188.271    -655.263
  C       55.177    -188.407    -656.601
  N       56.243    -188.078    -657.369
  C       57.240    -187.586    -656.611
  C       57.242    -187.404    -655.237
  C       56.073    -187.755    -654.546
  N       55.901    -187.564    -653.204
  N       58.454    -186.862    -654.819
  C       59.138    -186.681    -655.924
  N       58.437    -187.082    -657.033
  O       63.257    -189.504    -661.436
  O       64.127    -187.720    -663.053
  H       57.873    -184.569    -659.105
  H       63.347    -189.975    -662.286
  H       54.332    -188.838    -657.122
  H       60.117    -186.207    -655.986
  H       57.820    -186.771    -658.993
  H       60.251    -185.350    -657.745
  H       61.222    -185.126    -659.854
  H       59.913    -187.471    -660.997
  H       62.238    -187.409    -659.008
  H       54.987    -187.729    -652.808
  H       56.627    -187.085    -652.685
  H       61.818    -188.772    -660.083
  P       60.170    -184.009    -661.880
  C       58.954    -181.895    -660.957
  O       60.192    -182.585    -661.132
  O       59.105    -183.803    -663.070
  O       61.481    -184.475    -662.412
  H       59.521    -184.011    -663.932
  H       59.130    -180.971    -660.447
  H       58.287    -182.500    -660.379
  H       58.518    -181.697    -661.914

 6  7  8  9  10  11  12  13  14  15  25  28  32  33  34  35 0
 6-311+G(2d,p)
 ****
 36  39  40 0
 6-311+G(2d,p)
 ****
 1  2  3  4  5  16  17  18  19  20  21  22  23  24 0
 3-21G
 ****
 26  27  29  30  31  37  38  41  42  43  44  45  46  47  48 0
 3-21G
 ****


