%nproc=1
%NoSave
%Mem=1900MB
#P OB98/GEN NMR

erre ene a

0 1
  C       17.831      71.591    -118.797
  O       18.651      72.438    -118.018
  H       16.797      71.937    -118.722
  H       17.888      70.569    -118.413
  H       18.135      71.612    -119.847
  P       20.236      72.319    -118.242
  C       20.724      71.006    -116.057
  O       20.706      70.988    -117.477
  C       22.092      71.454    -115.552
  O       22.081      71.582    -114.114
  C       23.233      70.498    -115.889
  O       23.726      70.717    -117.203
  C       24.259      70.904    -114.845
  O       24.898      72.135    -115.247
  C       23.379      71.153    -113.613
  N       25.513      68.164    -110.113
  C       26.045      69.231    -110.809
  N       27.332      69.540    -110.543
  N       25.382      69.931    -111.694
  C       24.111      69.491    -111.876
  C       23.473      68.443    -111.250
  C       24.215      67.691    -110.266
  O       23.785      66.743    -109.611
  N       22.186      68.300    -111.697
  C       22.052      69.243    -112.607
  N       23.193      69.993    -112.755
  O       20.812      73.506    -117.331
  O       20.690      72.452    -119.657
  H       25.342      71.962    -116.097
  H       21.053      74.257    -117.906
  H       26.071      67.654    -109.450
  H       21.153      69.431    -113.177
  H       23.768      71.958    -112.977
  H       25.049      70.162    -114.719
  H       27.908      69.031    -109.891
  H       22.943      69.451    -115.732
  H       27.743      70.323    -111.040
  H       22.290      72.453    -115.966
  H       20.508      69.999    -115.685
  H       19.950      71.693    -115.701
  P       23.831      69.459    -118.194
  C       26.290      68.780    -117.725
  O       24.915      68.456    -117.564
  O       24.585      70.075    -119.464
  O       22.530      68.842    -118.578
  H       23.974      70.113    -120.226
  H       26.891      68.028    -117.258
  H       26.489      69.728    -117.271
  H       26.525      68.828    -118.768

 6  7  8  9  10  11  12  13  14  15  26  29  33  34 0
 6-311+G(2d,p)
 ****
 36  38  39  40  41 0
 6-311+G(2d,p)
 ****
 1  2  3  4  5  16  17  18  19  20  21  22  23  24  25 0
 3-21G
 ****
 27  28  30  31  32  35  37  42  43  44  45  46  47 0
 3-21G
 ****
 48  49 0
 3-21G
 ****


