%nproc=1
%NoSave
%Mem=1900MB
#P OB98/GEN NMR

erre ene a

0 1
  C      155.236      36.508    -233.448
  O      154.420      35.651    -232.639
  P      155.028      34.637    -231.556
  C      153.053      34.682    -229.896
  O      154.429      34.984    -230.110
  C      152.811      34.114    -228.494
  O      153.690      33.005    -228.235
  C      153.056      35.097    -227.356
  O      151.990      36.028    -227.244
  C      153.199      34.147    -226.171
  O      151.916      33.753    -225.665
  C      153.927      32.947    -226.815
  N      155.352      32.929    -226.510
  C      155.778      31.973    -225.584
  O      154.965      31.241    -225.021
  N      157.121      31.892    -225.296
  C      157.948      32.737    -225.829
  N      159.262      32.600    -225.514
  C      157.527      33.816    -226.741
  C      156.227      33.848    -227.036
  O      156.520      34.538    -231.588
  O      154.372      33.216    -231.900
  H      152.080      33.026    -225.033
  H      154.997      32.510    -231.659
  H      158.243      34.515    -227.144
  H      155.832      34.603    -227.709
  H      153.481      32.005    -226.474
  H      153.751      34.593    -225.340
  H      154.003      35.625    -227.518
  H      151.777      33.739    -228.459
  H      159.521      31.847    -224.891
  H      152.745      33.939    -230.644
  H      159.988      33.203    -225.874
  H      152.464      35.592    -230.045
  P      152.241      37.440    -226.536
  C      152.451      38.546    -228.847
  O      153.045      38.362    -227.574
  O      152.816      37.384    -225.161
  O      150.788      38.119    -226.519
  H      150.715      38.692    -225.734
  H      152.846      39.462    -229.288
  H      151.364      38.626    -228.767
  H      152.709      37.701    -229.491
  H      154.612      37.091    -234.092
  H      155.902      35.914    -234.038
  H      155.804      37.159    -232.817

 3  4  5  6  7  8  9  10  11  12  13  23  27  28  29  30  32 0
 6-311+G(2d,p)
 ****
 34  35 0
 6-311+G(2d,p)
 ****
 1  2  14  15  16  17  18  19  20  21  22  24  25  26 0
 3-21G
 ****
 31  33  36  37  38  39  40  41  42  43  44  45  46 0
 3-21G
 ****


