%nproc=1
%NoSave
%Mem=1900MB
#P OB98/GEN NMR

erre ene a

0 1
  C     -331.633    -341.326     -13.317
  O     -332.340    -342.408     -13.884
  H     -330.629    -341.301     -13.747
  H     -331.549    -341.451     -12.236
  H     -332.137    -340.381     -13.545
  P     -333.830    -342.710     -13.375
  C     -334.890    -343.736     -11.255
  O     -333.695    -343.530     -12.001
  C     -334.562    -343.914      -9.768
  O     -333.836    -345.158      -9.619
  C     -333.682    -342.778      -9.219
  O     -334.225    -342.172      -8.045
  C     -332.301    -343.420      -9.122
  O     -331.455    -342.840      -8.156
  C     -332.625    -344.902      -8.890
  N     -331.559    -345.808      -9.314
  C     -330.333    -345.709      -8.660
  O     -330.083    -344.928      -7.746
  N     -329.358    -346.574      -9.095
  C     -329.483    -347.485     -10.102
  O     -328.573    -348.234     -10.445
  C     -330.792    -347.521     -10.774
  C     -331.751    -346.695     -10.361
  O     -334.744    -343.327     -14.381
  O     -334.372    -341.282     -12.888
  H     -331.381    -341.886      -8.372
  H     -335.006    -340.932     -13.547
  H     -328.474    -346.525      -8.619
  H     -330.918    -348.226     -11.588
  H     -332.730    -346.695     -10.834
  H     -332.813    -345.089      -7.830
  H     -331.803    -343.311     -10.096
  H     -333.638    -341.945      -9.930
  H     -335.499    -344.008      -9.207
  H     -335.379    -344.636     -11.646
  H     -335.559    -342.878     -11.389
  P     -334.912    -340.732      -7.988
  C     -334.098    -338.251      -7.651
  O     -333.770    -339.630      -7.792
  O     -336.114    -340.620      -7.110
  O     -335.395    -340.484      -9.510
  H     -336.207    -339.939      -9.451
  H     -333.200    -337.681      -7.531
  H     -334.721    -338.119      -6.792
  H     -334.619    -337.917      -8.524

 6  7  8  9  10  11  12  13  14  15  16  26  31  32  33  34  35 0
 6-311+G(2d,p)
 ****
 36  37 0
 6-311+G(2d,p)
 ****
 1  2  3  4  5  17  18  19  20  21  22  23  24  25 0
 3-21G
 ****
 27  28  29  30  38  39  40  41  42  43  44  45 0
 3-21G
 ****


