%nproc=1
%NoSave
%Mem=1900MB
#P OB98/GEN NMR

erre ene a

0 1
  C      393.112     170.149     808.888
  O      392.986     169.994     807.488
  H      393.149     169.154     809.342
  H      392.246     170.683     809.288
  H      394.030     170.681     809.137
  P      393.011     171.303     806.562
  C      394.783     173.053     805.922
  O      394.400     172.052     806.855
  C      395.864     173.953     806.514
  O      395.314     174.662     807.653
  C      397.106     173.193     806.986
  O      398.258     173.983     806.699
  C      396.912     173.105     808.491
  O      398.154     172.988     809.190
  C      396.165     174.405     808.789
  N      396.373     174.720     813.827
  C      397.343     174.967     812.877
  N      398.565     175.326     813.333
  N      397.145     174.864     811.590
  C      395.871     174.511     811.276
  C      394.822     174.239     812.121
  C      395.063     174.342     813.549
  O      394.247     174.128     814.432
  N      393.696     173.888     811.415
  C      394.063     173.941     810.150
  N      395.381     174.304     810.013
  O      391.802     172.180     806.657
  O      393.207     170.728     805.082
  H      397.947     173.022     810.151
  H      392.357     170.704     804.603
  H      396.584     174.807     814.805
  H      393.431     173.722     809.302
  H      396.844     175.255     808.916
  H      396.298     172.230     808.736
  H      398.795     175.441     814.309
  H      397.206     172.205     806.526
  H      399.287     175.536     812.655
  H      396.131     174.714     805.769
  H      393.897     173.650     805.679
  H      395.150     172.575     805.009
  P      399.076     173.688     805.345
  C      398.582     174.144     802.857
  O      398.482     174.637     804.195
  O      399.228     172.253     804.983
  O      400.510     174.363     805.648
  H      401.190     173.872     805.149
  H      398.156     174.856     802.182
  H      398.053     173.217     802.778
  H      399.612     173.989     802.610

 6  7  8  9  10  11  12  13  14  15  26  29  33  34 0
 6-311+G(2d,p)
 ****
 36  38  39  40  41 0
 6-311+G(2d,p)
 ****
 1  2  3  4  5  16  17  18  19  20  21  22  23  24  25 0
 3-21G
 ****
 27  28  30  31  32  35  37  42  43  44  45  46  47 0
 3-21G
 ****
 48  49 0
 3-21G
 ****


