%nproc=1
%NoSave
%Mem=1900MB
#P OB98/GEN NMR

erre ene a

0 1
  C      939.278    -896.010    -236.907
  O      939.337    -897.020    -237.888
  H      940.190    -895.400    -236.978
  H      939.225    -896.440    -235.914
  H      938.416    -895.360    -237.080
  P      938.149    -898.090    -237.959
  C      938.048    -898.130    -240.540
  O      937.354    -897.830    -239.328
  C      938.429    -896.830    -241.263
  O      939.285    -896.050    -240.374
  C      939.191    -897.110    -242.572
  O      938.628    -896.420    -243.707
  C      940.641    -896.740    -242.213
  O      941.441    -896.340    -243.300
  C      940.468    -895.680    -241.103
  N      941.609    -895.580    -240.211
  C      942.579    -894.630    -240.507
  O      942.530    -893.850    -241.467
  N      943.642    -894.570    -239.648
  C      943.842    -895.360    -238.546
  O      944.816    -895.260    -237.812
  C      942.784    -896.350    -238.291
  C      941.743    -896.440    -239.139
  O      937.285    -898.180    -236.740
  O      938.896    -899.480    -238.248
  H      940.925    -895.660    -243.796
  H      938.947    -900.000    -237.415
  H      944.350    -893.880    -239.846
  H      942.921    -897.020    -237.439
  H      940.955    -897.170    -238.971
  H      940.297    -894.690    -241.548
  H      941.108    -897.630    -241.774
  H      939.149    -898.150    -242.850
  H      937.516    -896.240    -241.440
  H      937.388    -898.730    -241.158
  H      938.958    -898.700    -240.317
  P      937.262    -896.860    -244.416
  C      935.894    -894.640    -244.608
  O      936.117    -895.860    -243.937
  O      936.952    -898.330    -244.390
  O      937.499    -896.440    -245.960
  H      937.018    -897.100    -246.498
  H      935.089    -894.116    -244.137
  H      935.643    -894.835    -245.630
  H      936.781    -894.043    -244.566

 6  7  8  9  10  11  12  13  14  15  16  26  31  32  33  34  35 0
 6-311+G(2d,p)
 ****
 36  37 0
 6-311+G(2d,p)
 ****
 1  2  3  4  5  17  18  19  20  21  22  23  24  25 0
 3-21G
 ****
 27  28  29  30  38  39  40  41  42  43  44  45 0
 3-21G
 ****


