%nproc=1
%NoSave
%Mem=1900MB
#P OB98/GEN NMR

erre ene a

0 1
  C     -175.233     485.276    -178.507
  O     -174.257     485.606    -177.534
  H     -175.293     484.187    -178.594
  H     -174.947     485.690    -179.475
  H     -176.214     485.661    -178.211
  P     -174.185     487.144    -177.090
  C     -176.368     486.732    -175.693
  O     -175.657     487.571    -176.594
  C     -176.947     487.567    -174.551
  O     -177.975     488.456    -175.031
  C     -177.649     486.756    -173.475
  O     -176.747     486.036    -172.660
  C     -178.396     487.855    -172.734
  O     -177.567     488.493    -171.755
  C     -178.757     488.836    -173.874
  N     -180.183     488.844    -174.147
  C     -180.673     490.018    -174.748
  O     -179.900     490.937    -175.023
  N     -182.017     490.120    -174.985
  C     -182.813     489.161    -174.630
  N     -184.141     489.343    -174.862
  C     -182.343     487.907    -173.994
  C     -181.025     487.821    -173.784
  O     -174.039     487.901    -178.494
  O     -173.105     487.464    -176.110
  H     -176.689     488.621    -172.172
  H     -174.686     487.615    -179.161
  H     -183.044     487.133    -173.731
  H     -180.591     486.937    -173.323
  H     -178.452     489.862    -173.613
  H     -179.270     487.459    -172.198
  H     -178.391     486.086    -173.932
  H     -176.135     488.175    -174.121
  H     -184.434     490.236    -175.246
  H     -175.714     485.948    -175.296
  H     -184.858     488.699    -174.556
  H     -177.170     486.245    -176.251
  P     -177.248     484.857    -171.702
  C     -175.738     483.174    -172.941
  O     -177.064     483.483    -172.523
  O     -178.610     485.047    -171.112
  O     -176.078     484.752    -170.608
  H     -175.197     484.550    -170.973
  H     -175.739     482.246    -173.473
  H     -175.103     483.093    -172.083
  H     -175.375     483.951    -173.581

 6  7  8  9  10  11  12  13  14  15  16  26  30  31  32  33  35 0
 6-311+G(2d,p)
 ****
 37  38 0
 6-311+G(2d,p)
 ****
 1  2  3  4  5  17  18  19  20  21  22  23  24  25 0
 3-21G
 ****
 27  28  29  34  36  39  40  41  42  43  44  45  46 0
 3-21G
 ****


