%nproc=1
%NoSave
%Mem=1900MB
#P OB98/GEN NMR

erre ene a

0 1
  C     -426.856     313.918     147.911
  O     -426.263     312.995     147.017
  H     -426.525     313.679     148.928
  H     -427.946     313.854     147.873
  H     -426.533     314.934     147.669
  P     -426.791     312.970     145.498
  C     -428.350     310.914     145.646
  O     -428.266     312.338     145.568
  C     -429.286     310.357     144.571
  O     -430.518     311.112     144.548
  C     -428.726     310.458     143.157
  O     -427.636     309.604     142.906
  C     -429.982     310.348     142.304
  O     -430.365     309.004     142.024
  C     -431.049     311.014     143.211
  N     -431.465     312.319     142.698
  C     -432.445     312.299     141.712
  O     -432.934     311.258     141.262
  N     -432.823     313.519     141.223
  C     -432.286     314.722     141.574
  O     -432.640     315.783     141.062
  C     -431.235     314.680     142.603
  C     -430.874     313.498     143.108
  O     -425.888     312.299     144.504
  O     -427.074     314.513     145.173
  H     -430.211     308.487     142.841
  H     -427.148     314.661     144.198
  H     -433.538     313.524     140.513
  H     -430.784     315.620     142.904
  H     -430.099     313.441     143.873
  H     -431.943     310.380     143.274
  H     -429.857     310.851     141.341
  H     -428.355     311.480     143.015
  H     -429.527     309.319     144.826
  H     -428.747     310.661     146.635
  H     -427.348     310.480     145.541
  P     -426.672     309.768     141.641
  C     -427.135     307.633     140.231
  O     -427.353     309.032     140.385
  O     -425.205     309.567     141.875
  O     -426.888     311.327     141.278
  H     -426.038     311.668     140.936
  H     -427.647     307.286     139.358
  H     -427.508     307.117     141.091
  H     -426.087     307.445     140.129

 6  7  8  9  10  11  12  13  14  15  16  26  31  32  33  34  35 0
 6-311+G(2d,p)
 ****
 36  37 0
 6-311+G(2d,p)
 ****
 1  2  3  4  5  17  18  19  20  21  22  23  24  25 0
 3-21G
 ****
 27  28  29  30  38  39  40  41  42  43  44  45 0
 3-21G
 ****


