%nproc=1
%NoSave
%Mem=1900MB
#P OB98/GEN NMR

erre ene a

0 1
  C      483.685     -14.690     849.974
  O      483.395     -15.905     850.637
  H      482.985     -14.569     849.145
  H      484.700     -14.718     849.573
  H      483.573     -13.841     850.656
  P      484.213     -16.280     851.963
  C      482.212     -15.213     853.176
  O      483.625     -15.364     853.144
  C      481.820     -13.972     853.980
  O      482.193     -14.183     855.368
  C      482.497     -12.689     853.497
  O      481.569     -11.617     853.614
  C      483.631     -12.494     854.493
  O      484.007     -11.124     854.620
  C      483.026     -13.076     855.766
  N      486.800     -11.537     858.759
  C      485.893     -10.802     858.019
  N      486.013      -9.455     858.059
  N      484.935     -11.342     857.302
  C      484.923     -12.698     857.362
  C      485.768     -13.532     858.052
  C      486.814     -12.926     858.833
  O      487.660     -13.522     859.494
  N      485.443     -14.852     857.840
  C      484.408     -14.814     857.023
  N      484.058     -13.526     856.691
  O      485.701     -16.236     851.830
  O      483.693     -17.744     852.338
  H      484.558     -11.046     855.427
  H      484.332     -18.423     852.048
  H      487.514     -11.066     859.284
  H      483.880     -15.674     856.635
  H      482.406     -12.352     856.310
  H      484.509     -13.069     854.174
  H      486.708      -8.972     858.606
  H      482.871     -12.758     852.469
  H      485.340      -8.901     857.544
  H      480.728     -13.876     853.952
  H      481.777     -16.110     853.641
  H      481.831     -15.134     852.154
  P      481.111     -10.847     852.275
  C      478.576     -11.322     852.150
  O      479.868     -11.649     851.645
  O      482.200     -10.503     851.321
  O      480.404      -9.528     852.856
  H      480.516      -8.806     852.205
  H      477.838     -11.919     851.655
  H      478.375     -10.286     851.972
  H      478.545     -11.516     853.202

 6  7  8  9  10  11  12  13  14  15  26  29  33  34 0
 6-311+G(2d,p)
 ****
 36  38  39  40  41 0
 6-311+G(2d,p)
 ****
 1  2  3  4  5  16  17  18  19  20  21  22  23  24  25 0
 3-21G
 ****
 27  28  30  31  32  35  37  42  43  44  45  46  47 0
 3-21G
 ****
 48  49 0
 3-21G
 ****


