%nproc=1
%NoSave
%Mem=1900MB
#P OB98/GEN NMR

erre ene a

0 1
  C      -51.217     297.387     442.468
  O      -49.999     297.922     442.942
  H      -51.589     296.659     443.189
  H      -51.043     296.877     441.514
  H      -51.965     298.174     442.336
  P      -49.473     299.274     442.260
  C      -47.074     298.739     441.424
  O      -48.452     298.835     441.095
  C      -46.212     299.207     440.247
  O      -46.395     298.278     439.139
  C      -46.560     300.617     439.739
  O      -45.351     301.273     439.331
  C      -47.380     300.328     438.489
  O      -47.374     301.415     437.572
  C      -46.680     299.074     437.973
  N      -47.438     298.413     433.056
  C      -46.409     299.038     433.732
  N      -45.452     299.634     432.976
  N      -46.320     299.074     435.035
  C      -47.324     298.425     435.663
  C      -48.404     297.778     435.115
  C      -48.500     297.756     433.669
  O      -49.406     297.236     433.015
  N      -49.239     297.295     436.090
  C      -48.677     297.677     437.225
  N      -47.512     298.364     437.015
  O      -48.520     299.888     443.387
  O      -50.537     300.239     441.842
  H      -47.973     301.194     436.830
  H      -49.016     300.533     443.926
  H      -47.469     298.424     432.047
  H      -49.079     297.498     438.212
  H      -45.736     299.297     437.471
  H      -48.425     300.118     438.769
  H      -45.435     299.619     431.972
  H      -47.093     301.236     440.464
  H      -44.674     300.051     433.464
  H      -45.157     299.152     440.545
  H      -46.829     297.695     441.653
  H      -46.870     299.348     442.309
  P      -44.789     302.447     440.264
  C      -44.558     304.444     438.607
  O      -45.286     303.851     439.675
  O      -43.217     302.448     439.938
  O      -45.042     302.238     441.722
  H      -42.714     302.677     440.744
  H      -45.018     305.371     438.333
  H      -44.558     303.783     437.765
  H      -43.550     304.624     438.919

 6  7  8  9  10  11  12  13  14  15  26  29  33  34 0
 6-311+G(2d,p)
 ****
 36  38  39  40  41 0
 6-311+G(2d,p)
 ****
 1  2  3  4  5  16  17  18  19  20  21  22  23  24  25 0
 3-21G
 ****
 27  28  30  31  32  35  37  42  43  44  45  46  47 0
 3-21G
 ****
 48  49 0
 3-21G
 ****


