%nproc=1
%NoSave
%Mem=1900MB
#P OB98/GEN NMR

erre ene a

0 1
  C      -23.772       4.683      -5.226
  O      -24.746       3.734      -4.772
  P      -25.203       3.606      -3.238
  C      -23.311       2.004      -2.528
  O      -23.923       3.270      -2.328
  C      -22.551       1.535      -1.282
  O      -21.267       2.225      -1.189
  C      -23.296       1.773       0.044
  O      -23.031       0.636       0.872
  C      -22.607       3.021       0.573
  O      -22.798       3.234       1.959
  C      -21.162       2.713       0.166
  N      -20.236       3.838       0.238
  C      -19.491       3.993       1.415
  O      -19.649       3.246       2.378
  N      -18.582       5.022       1.483
  C      -18.432       5.827       0.479
  N      -17.508       6.817       0.611
  C      -19.207       5.712      -0.767
  C      -20.078       4.706      -0.819
  O      -26.341       2.659      -3.030
  O      -25.614       5.086      -2.790
  H      -26.368       5.036      -2.171
  H      -22.514       2.429       2.429
  H      -19.045       6.401      -1.584
  H      -20.667       4.537      -1.715
  H      -20.782       1.886       0.776
  H      -23.003       3.892       0.044
  H      -24.379       1.879      -0.074
  H      -22.325       0.468      -1.405
  H      -16.987       6.858       1.480
  H      -22.606       2.087      -3.360
  H      -17.304       7.493      -0.110
  H      -24.081       1.274      -2.803
  P      -23.866      -0.716       0.654
  C      -25.931       0.132       1.998
  O      -25.422      -0.350       0.771
  O      -23.608      -1.489       2.037
  O      -23.452      -1.572      -0.499
  H      -23.708      -2.447       1.891
  H      -26.588       0.982       1.795
  H      -25.138       0.457       2.677
  H      -26.511      -0.658       2.478
  H      -23.636       4.577      -6.282
  H      -22.842       4.506      -4.727
  H      -24.111       5.674      -5.008

 3  4  5  6  7  8  9  10  11  12  13  24  27  28  29  30  32 0
 6-311+G(2d,p)
 ****
 34  35 0
 6-311+G(2d,p)
 ****
 1  2  14  15  16  17  18  19  20  21  22  23  25  26 0
 3-21G
 ****
 31  33  36  37  38  39  40  41  42  43  44  45  46 0
 3-21G
 ****


