%nproc=1
%NoSave
%Mem=1900MB
#P OB98/GEN NMR

erre ene a

0 1
  C      236.643      15.298     244.016
  O      235.340      15.341     244.564
  H      236.954      14.253     243.939
  H      237.353      15.830     244.653
  H      236.641      15.736     243.015
  P      234.766      16.764     245.037
  C      232.950      17.109     243.238
  O      234.248      17.481     243.694
  C      232.385      18.146     242.269
  O      232.150      19.400     242.944
  C      233.314      18.493     241.117
  O      233.536      17.445     240.202
  C      232.721      19.802     240.620
  O      231.613      19.599     239.743
  C      232.238      20.441     241.945
  N      233.101      21.534     242.379
  C      232.769      22.797     241.907
  O      231.825      23.014     241.148
  N      233.585      23.818     242.312
  C      234.701      23.691     243.085
  O      235.405      24.645     243.396
  C      235.025      22.323     243.522
  C      234.221      21.322     243.157
  O      235.705      17.604     245.850
  O      233.408      16.396     245.796
  H      231.902      18.962     239.062
  H      233.087      17.155     246.343
  H      233.353      24.746     241.992
  H      235.910      22.184     244.126
  H      234.438      20.303     243.470
  H      231.222      20.841     241.825
  H      233.453      20.407     240.082
  H      234.299      18.738     241.533
  H      231.419      17.779     241.905
  H      232.296      17.039     244.114
  H      233.001      16.128     242.755
  P      234.558      17.533     238.983
  C      236.646      16.619     240.262
  O      236.039      17.704     239.570
  O      234.155      18.396     237.832
  O      234.577      16.004     238.463
  H      234.694      16.033     237.492
  H      237.626      16.904     240.583
  H      236.716      15.774     239.609
  H      236.052      16.362     241.114

 6  7  8  9  10  11  12  13  14  15  16  26  31  32  33  34  35 0
 6-311+G(2d,p)
 ****
 36  37 0
 6-311+G(2d,p)
 ****
 1  2  3  4  5  17  18  19  20  21  22  23  24  25 0
 3-21G
 ****
 27  28  29  30  38  39  40  41  42  43  44  45 0
 3-21G
 ****


