%nproc=1
%NoSave
%Mem=1900MB
#P OB98/GEN NMR

erre ene a

0 1
  C     -160.432    -430.197    -350.020
  O     -159.260    -430.810    -349.480
  P     -159.401    -431.872    -348.294
  C     -159.149    -434.023    -349.713
  O     -158.604    -433.207    -348.679
  C     -158.252    -433.974    -350.953
  O     -158.214    -432.646    -351.529
  C     -156.797    -434.305    -350.643
  O     -156.507    -435.642    -350.296
  C     -156.071    -433.728    -351.852
  O     -156.094    -434.628    -352.960
  C     -156.927    -432.471    -352.155
  N     -156.281    -431.235    -351.713
  C     -155.643    -430.490    -352.698
  O     -155.565    -430.850    -353.874
  N     -155.056    -429.328    -352.278
  C     -155.013    -428.864    -350.998
  O     -154.454    -427.823    -350.679
  C     -155.688    -429.703    -349.993
  C     -156.280    -430.829    -350.389
  O     -160.779    -432.086    -347.771
  O     -158.464    -431.240    -347.145
  H     -157.031    -434.800    -353.172
  H     -158.923    -431.364    -346.290
  H     -154.590    -428.770    -352.986
  H     -155.672    -429.368    -348.969
  H     -156.785    -431.463    -349.666
  H     -157.111    -432.382    -353.233
  H     -155.021    -433.516    -351.626
  H     -156.492    -433.699    -349.776
  H     -158.663    -434.648    -351.707
  H     -160.155    -433.683    -349.957
  H     -159.251    -435.049    -349.336
  P     -155.422    -436.042    -349.183
  C     -156.927    -436.410    -347.105
  O     -156.132    -437.000    -348.108
  O     -154.544    -434.957    -348.657
  O     -154.508    -437.091    -349.998
  H     -153.589    -437.007    -349.675
  H     -157.313    -437.206    -346.455
  H     -157.770    -435.878    -347.549
  H     -156.330    -435.726    -346.494
  H     -160.153    -429.519    -350.799
  H     -160.943    -429.662    -349.247
  H     -161.078    -430.951    -350.418

 3  4  5  6  7  8  9  10  11  12  13  23  28  29  30  31  32 0
 6-311+G(2d,p)
 ****
 33  34 0
 6-311+G(2d,p)
 ****
 1  2  14  15  16  17  18  19  20  21  22  24  25  26  27 0
 3-21G
 ****
 35  36  37  38  39  40  41  42  43  44  45 0
 3-21G
 ****


