%nproc=1
%NoSave
%Mem=1900MB
#P OB98/GEN NMR

erre ene a

0 1
  C      132.217    -815.271      41.209
  O      132.981    -816.206      40.452
  P      133.692    -817.405      41.256
  C      135.917    -816.547      40.232
  O      135.222    -816.969      41.411
  C      136.821    -815.359      40.543
  O      136.025    -814.267      41.049
  C      137.873    -815.617      41.596
  O      139.002    -816.297      41.075
  C      138.228    -814.196      42.023
  O      139.166    -813.648      41.075
  C      136.874    -813.478      41.921
  N      136.302    -810.479      45.951
  C      137.078    -810.306      44.826
  N      137.787    -809.158      44.752
  N      137.160    -811.184      43.856
  C      136.370    -812.268      44.052
  C      135.560    -812.543      45.131
  C      135.515    -811.589      46.211
  O      134.892    -811.716      47.272
  N      134.897    -813.736      44.951
  C      135.269    -814.153      43.759
  N      136.196    -813.306      43.188
  O      133.743    -818.575      40.173
  O      132.995    -817.832      42.505
  H      139.962    -814.205      41.112
  H      133.776    -819.445      40.624
  H      136.256    -809.761      46.657
  H      134.923    -815.047      43.276
  H      136.986    -812.496      41.438
  H      138.690    -814.145      43.009
  H      137.655    -808.392      45.403
  H      137.448    -816.157      42.462
  H      138.332    -808.986      43.917
  H      137.283    -815.032      39.602
  H      135.180    -816.255      39.476
  H      136.508    -817.387      39.849
  P      139.152    -817.859      41.450
  C      141.257    -817.360      42.904
  O      139.932    -817.880      42.847
  O      140.231    -818.390      40.389
  O      137.870    -818.623      41.397
  H      140.102    -819.342      40.237
  H      141.370    -816.487      42.236
  H      141.956    -818.143      42.594
  H      141.469    -817.054      43.920
  H      131.804    -814.533      40.553
  H      132.849    -814.794      41.929
  H      131.425    -815.783      41.713

 3  4  5  6  7  8  9  10  11  12  23  26  30  31  33  0
 6-311+G(2d,p)
 ****
 35  36  37  38 0
 6-311+G(2d,p)
 ****
 1  2  13  14  15  16  17  18  19  20  21  22  24  25  27  28  29 0
 3-21G
 ****
 32  34  39  40  41  42  43  44  45  46  47  48  49 0
 3-21G
 ****


