%nproc=1
%NoSave
%Mem=1900MB
#P OB98/GEN NMR

erre ene a

0 1
  C      415.398    -558.405     -31.444
  O      416.097    -559.517     -31.983
  P      415.233    -560.795     -32.442
  C      417.583    -561.789     -33.109
  O      416.278    -562.004     -32.577
  C      418.463    -563.009     -32.834
  O      417.783    -564.211     -33.226
  C      419.783    -563.016     -33.603
  O      420.736    -562.131     -33.025
  C      420.153    -564.481     -33.525
  O      420.762    -564.792     -32.254
  C      418.783    -565.173     -33.649
  N      418.496    -565.678     -34.992
  C      418.408    -567.060     -35.118
  O      418.557    -567.839     -34.174
  N      418.163    -567.525     -36.383
  C      418.070    -566.772     -37.515
  O      417.884    -567.240     -38.632
  C      418.202    -565.322     -37.320
  C      418.410    -564.849     -36.090
  O      414.884    -560.385     -33.946
  O      414.052    -561.048     -31.570
  H      415.560    -559.792     -34.326
  H      421.501    -564.166     -32.142
  H      418.078    -568.529     -36.495
  H      418.136    -564.685     -38.200
  H      418.513    -563.775     -35.928
  H      418.710    -566.007     -32.936
  H      420.881    -564.780     -34.308
  H      419.614    -562.727     -34.642
  H      418.654    -563.062     -31.747
  H      418.023    -560.902     -32.637
  H      417.493    -561.612     -34.185
  P      421.164    -560.859     -33.917
  C      422.748    -560.436     -31.865
  O      422.507    -560.282     -33.260
  O      420.031    -559.800     -33.514
  O      421.240    -561.153     -35.386
  H      419.834    -559.804     -32.551
  H      423.815    -560.319     -31.689
  H      422.435    -561.426     -31.523
  H      422.198    -559.668     -31.317
  H      416.096    -557.636     -31.185
  H      414.863    -558.710     -30.569
  H      414.709    -558.030     -32.171

 3  4  5  6  7  8  9  10  11  12  13  24  28  29  30  31  32 0
 6-311+G(2d,p)
 ****
 33  34 0
 6-311+G(2d,p)
 ****
 1  2  14  15  16  17  18  19  20  21  22  23  25  26  27 0
 3-21G
 ****
 35  36  37  38  39  40  41  42  43  44  45 0
 3-21G
 ****


