%nproc=1
%NoSave
%Mem=1900MB
#P OB98/GEN NMR

erre ene a

0 1
  C     -103.826    -234.820    -503.169
  O     -103.231    -235.898    -503.880
  P     -101.809    -235.633    -504.580
  C     -100.742    -237.239    -502.822
  O     -100.682    -235.975    -503.482
  C      -99.382    -237.934    -502.851
  O      -98.362    -236.995    -502.395
  C      -99.293    -239.190    -501.968
  O      -98.423    -240.110    -502.635
  C      -98.633    -238.632    -500.709
  O      -98.074    -239.628    -499.862
  C      -97.640    -237.653    -501.330
  N      -93.627    -236.277    -498.465
  C      -93.792    -237.269    -499.372
  N      -94.885    -237.572    -500.103
  C      -95.890    -236.715    -499.833
  C      -95.876    -235.672    -498.920
  C      -94.677    -235.462    -498.214
  N      -94.510    -234.452    -497.283
  N      -97.097    -235.026    -498.895
  C      -97.833    -235.673    -499.773
  N      -97.142    -236.687    -500.375
  O     -101.748    -234.042    -504.687
  O     -101.624    -236.301    -505.910
  H      -97.310    -240.058    -500.301
  H     -101.331    -233.761    -505.526
  H      -92.927    -237.909    -499.534
  H      -98.873    -235.457    -499.996
  H      -96.775    -238.167    -501.772
  H      -99.390    -238.105    -500.119
  H     -100.256    -239.670    -501.786
  H      -99.148    -238.190    -503.902
  H     -101.475    -237.878    -503.329
  H      -93.690    -234.510    -496.692
  H      -95.353    -233.982    -496.956
  H     -101.092    -237.090    -501.790
  P      -98.611    -241.682    -502.372
  C     -100.473    -241.589    -504.151
  O     -100.130    -241.973    -502.836
  O      -98.749    -241.712    -500.777
  O      -97.545    -242.565    -502.927
  H      -99.416    -241.072    -500.463
  H     -101.491    -241.931    -504.362
  H      -99.784    -242.049    -504.874
  H     -100.442    -240.500    -504.242
  H     -104.762    -235.137    -502.758
  H     -103.989    -233.999    -503.836
  H     -103.175    -234.512    -502.377

 3  4  5  6  7  8  9  10  11  12  22  25  29  30  31  32 0
 6-311+G(2d,p)
 ****
 33  36  37 0
 6-311+G(2d,p)
 ****
 1  2  13  14  15  16  17  18  19  20  21  23  24  26 0
 3-21G
 ****
 27  28  34  35  38  39  40  41  42  43  44  45  46  47  48 0
 3-21G
 ****


