%nproc=1
%NoSave
%Mem=1900MB
#P OB98/GEN NMR

erre ene a

0 1
  C     -853.886    -321.015      55.610
  O     -852.746    -321.459      56.319
  P     -851.303    -321.176      55.668
  C     -850.843    -323.760      55.803
  O     -850.815    -322.562      55.038
  C     -851.131    -324.963      54.895
  O     -852.293    -324.693      54.082
  C     -850.016    -325.295      53.912
  O     -848.945    -325.980      54.541
  C     -850.781    -326.122      52.877
  O     -850.948    -327.477      53.349
  C     -852.148    -325.404      52.839
  N     -852.290    -324.506      51.693
  C     -852.432    -325.118      50.453
  O     -852.440    -326.339      50.294
  N     -852.536    -324.265      49.374
  C     -852.464    -322.910      49.420
  O     -852.520    -322.192      48.433
  C     -852.271    -322.319      50.762
  C     -852.210    -323.128      51.817
  O     -850.414    -320.985      56.982
  O     -851.310    -320.006      54.734
  H     -850.784    -321.478      57.741
  H     -851.607    -327.896      52.765
  H     -852.664    -324.683      48.467
  H     -852.204    -321.242      50.839
  H     -852.060    -322.722      52.808
  H     -852.956    -326.142      52.809
  H     -850.266    -326.169      51.916
  H     -849.656    -324.376      53.444
  H     -851.363    -325.820      55.541
  H     -851.623    -323.683      56.572
  H     -849.873    -323.881      56.305
  P     -847.561    -325.173      54.649
  C     -846.780    -326.600      52.604
  O     -846.825    -325.338      53.224
  O     -846.717    -326.133      55.638
  O     -847.700    -323.766      55.132
  H     -846.832    -327.067      55.429
  H     -846.580    -326.454      51.541
  H     -847.728    -327.150      52.723
  H     -845.973    -327.197      53.031
  H     -854.769    -321.270      56.158
  H     -853.914    -321.486      54.649
  H     -853.838    -319.953      55.486

 3  4  5  6  7  8  9  10  11  12  13  24  28  29  30  31  32 0
 6-311+G(2d,p)
 ****
 33  34 0
 6-311+G(2d,p)
 ****
 1  2  14  15  16  17  18  19  20  21  22  23  25  26  27 0
 3-21G
 ****
 35  36  37  38  39  40  41  42  43  44  45 0
 3-21G
 ****


