%nproc=1
%NoSave
%Mem=1900MB
#P OB98/GEN NMR

erre ene a

0 1
  C      433.721      88.015    -203.536
  O      434.446      88.732    -204.523
  P      434.227      88.458    -206.091
  C      435.196      86.093    -205.688
  O      435.253      87.281    -206.462
  C      436.267      85.102    -206.155
  O      436.223      83.934    -205.296
  C      436.097      84.623    -207.601
  O      437.410      84.440    -208.144
  C      435.394      83.287    -207.433
  O      435.564      82.436    -208.561
  C      436.048      82.782    -206.142
  N      435.245      81.759    -205.481
  C      435.420      80.432    -205.887
  O      436.200      80.145    -206.791
  N      434.696      79.451    -205.255
  C      433.815      79.770    -204.359
  N      433.167      78.758    -203.722
  C      433.521      81.167    -203.977
  C      434.282      82.093    -204.553
  O      434.325      89.663    -206.957
  O      432.820      87.708    -206.169
  H      436.520      82.291    -208.695
  H      432.051      88.334    -206.193
  H      432.756      81.384    -203.247
  H      434.161      83.141    -204.316
  H      437.050      82.389    -206.354
  H      434.319      83.455    -207.297
  H      435.544      85.334    -208.226
  H      437.253      85.572    -206.020
  H      433.518      77.820    -203.884
  H      434.212      85.636    -205.827
  H      432.728      78.906    -202.820
  H      435.317      86.333    -204.628
  P      438.024      85.603    -209.067
  C      437.109      85.122    -211.449
  O      438.193      85.022    -210.552
  O      439.543      85.656    -208.556
  O      437.394      86.953    -208.936
  H      439.907      86.549    -208.724
  H      437.402      84.688    -212.406
  H      436.838      86.174    -211.613
  H      436.243      84.573    -211.068
  H      434.016      88.349    -202.563
  H      433.927      86.969    -203.631
  H      432.673      88.186    -203.669

 3  4  5  6  7  8  9  10  11  12  13  23  27  28  29  30  32 0
 6-311+G(2d,p)
 ****
 34  35 0
 6-311+G(2d,p)
 ****
 1  2  14  15  16  17  18  19  20  21  22  24  25  26 0
 3-21G
 ****
 31  33  36  37  38  39  40  41  42  43  44  45  46 0
 3-21G
 ****


