%nproc=1
%NoSave
%Mem=1900MB
#P OB98/GEN NMR

erre ene a

0 1
  C       66.512     -67.750      32.252
  O       66.672     -67.933      33.665
  P       66.145     -66.774      34.639
  C       67.266     -67.240      36.941
  O       66.100     -67.345      36.137
  C       67.059     -67.950      38.282
  O       67.284     -69.371      38.175
  C       68.000     -67.474      39.378
  O       67.534     -66.277      39.982
  C       67.915     -68.630      40.362
  O       66.713     -68.514      41.149
  C       67.824     -69.844      39.430
  N       71.456     -72.875      41.393
  C       70.309     -72.386      41.916
  N       69.403     -71.570      41.338
  C       69.767     -71.273      40.081
  C       70.905     -71.694      39.413
  C       71.778     -72.535      40.124
  N       72.943     -73.031      39.585
  N       70.946     -71.174      38.137
  C       69.841     -70.463      38.030
  N       69.101     -70.485      39.181
  O       64.597     -66.650      34.248
  O       66.856     -65.473      34.472
  H       66.817     -67.727      41.714
  H       64.309     -65.722      34.328
  H       70.090     -72.691      42.935
  H       69.536     -69.922      37.144
  H       67.143     -70.613      39.814
  H       68.753     -68.647      41.064
  H       69.026     -67.375      38.999
  H       66.019     -67.788      38.593
  H       67.513     -66.188      37.108
  H       73.504     -73.651      40.145
  H       73.176     -72.799      38.630
  H       68.113     -67.671      36.397
  P       68.630     -65.166      40.352
  C       67.479     -64.362      42.537
  O       67.853     -64.059      41.209
  O       68.905     -64.451      38.947
  O       69.879     -65.710      40.959
  H       69.823     -64.121      38.914
  H       67.248     -63.430      43.059
  H       68.287     -64.870      43.069
  H       66.587     -64.995      42.533
  H       66.908     -68.599      31.735
  H       67.036     -66.869      31.945
  H       65.472     -67.645      32.021

 3  4  5  6  7  8  9  10  11  12  22  25  29  30  31  32 0
 6-311+G(2d,p)
 ****
 33  36  37 0
 6-311+G(2d,p)
 ****
 1  2  13  14  15  16  17  18  19  20  21  23  24  26 0
 3-21G
 ****
 27  28  34  35  38  39  40  41  42  43  44  45  46  47  48 0
 3-21G
 ****


