%nproc=1
%NoSave
%Mem=1900MB
#P OB98/GEN NMR

erre ene a

0 1
  C      -64.121     253.964     237.864
  O      -64.700     253.938     236.579
  H      -63.759     254.978     238.060
  H      -63.273     253.279     237.921
  H      -64.864     253.707     238.624
  P      -65.145     252.525     235.955
  C      -63.613     252.648     233.901
  O      -63.850     252.004     235.149
  C      -62.856     251.735     232.935
  O      -62.888     252.304     231.601
  C      -61.385     251.517     233.310
  O      -61.072     250.126     233.218
  C      -60.624     252.301     232.251
  O      -59.298     251.815     232.070
  C      -61.566     252.162     231.050
  N      -61.306     253.147     230.005
  C      -60.467     252.744     228.962
  O      -59.959     251.620     228.974
  N      -60.190     253.631     227.954
  C      -60.666     254.834     228.007
  N      -60.347     255.669     226.982
  C      -61.516     255.318     229.112
  C      -61.800     254.429     230.064
  O      -66.407     252.565     235.158
  O      -65.210     251.535     237.209
  H      -58.861     252.357     231.378
  H      -65.768     250.751     236.980
  H      -61.882     256.334     229.117
  H      -62.425     254.694     230.911
  H      -61.485     251.160     230.607
  H      -60.562     253.355     232.551
  H      -61.141     251.861     234.312
  H      -63.396     250.782     232.871
  H      -59.762     255.298     226.241
  H      -63.043     253.565     234.083
  H      -60.655     256.628     226.920
  H      -64.582     252.909     233.461
  P      -60.748     249.381     234.605
  C      -58.332     248.678     233.987
  O      -59.161     249.451     234.842
  O      -61.019     247.844     234.265
  O      -61.585     249.854     235.748
  H      -61.893     247.572     234.603
  H      -57.307     248.821     234.259
  H      -58.479     248.987     232.973
  H      -58.585     247.643     234.085

 6  7  8  9  10  11  12  13  14  15  16  26  30  31  32  33  35 0
 6-311+G(2d,p)
 ****
 37  38 0
 6-311+G(2d,p)
 ****
 1  2  3  4  5  17  18  19  20  21  22  23  24  25 0
 3-21G
 ****
 27  28  29  34  36  39  40  41  42  43  44  45  46 0
 3-21G
 ****


