%nproc=1
%NoSave
%Mem=1900MB
#P OB98/GEN NMR

erre ene a

0 1
  C     -560.345    -482.984     182.395
  O     -560.971    -482.154     181.448
  P     -560.036    -481.177     180.582
  C     -561.279    -481.085     178.285
  O     -560.973    -480.431     179.515
  C     -562.370    -480.299     177.531
  O     -563.540    -480.141     178.374
  C     -561.950    -478.888     177.148
  O     -561.122    -478.890     175.994
  C     -563.287    -478.205     176.913
  O     -563.797    -478.484     175.604
  C     -564.175    -478.892     177.995
  N     -564.413    -478.036     179.155
  C     -565.553    -477.226     179.089
  O     -566.297    -477.222     178.110
  N     -565.767    -476.408     180.174
  C     -564.940    -476.272     181.262
  O     -565.158    -475.480     182.177
  C     -563.736    -477.123     181.259
  C     -563.529    -477.947     180.219
  O     -559.157    -482.165     179.683
  O     -559.190    -480.249     181.399
  H     -563.153    -478.114     174.978
  H     -558.253    -481.788     179.566
  H     -566.594    -475.842     180.157
  H     -563.070    -477.050     182.090
  H     -562.643    -478.571     180.189
  H     -565.150    -479.165     177.563
  H     -563.244    -477.124     177.018
  H     -561.433    -478.407     177.987
  H     -562.658    -480.875     176.648
  H     -561.635    -482.100     178.487
  H     -560.374    -481.140     177.680
  P     -559.741    -478.061     176.068
  C     -558.045    -479.856     175.213
  O     -558.807    -478.698     174.938
  O     -559.156    -478.585     177.454
  O     -559.963    -476.565     176.008
  H     -559.393    -479.506     177.635
  H     -558.595    -480.543     175.880
  H     -557.104    -479.575     175.679
  H     -557.840    -480.385     174.283
  H     -561.084    -483.576     182.894
  H     -559.828    -482.381     183.111
  H     -559.647    -483.627     181.900

 3  4  5  6  7  8  9  10  11  12  13  23  28  29  30  31  32 0
 6-311+G(2d,p)
 ****
 33  34 0
 6-311+G(2d,p)
 ****
 1  2  14  15  16  17  18  19  20  21  22  24  25  26 0
 3-21G
 ****
 27  35  36  37  38  39  40  41  42  43  44  45 0
 3-21G
 ****


