%nproc=1
%NoSave
%Mem=1900MB
#P OB98/GEN NMR

erre ene a

0 1
  C      464.154     180.299     568.417
  O      463.611     179.444     567.427
  H      464.985     179.786     568.909
  H      463.397     180.543     569.169
  H      464.534     181.219     567.958
  P      462.346     179.949     566.585
  C      460.730     178.368     567.843
  O      461.065     179.719     567.523
  C      459.216     178.230     568.028
  O      458.862     176.853     568.266
  C      458.650     179.026     569.207
  O      458.461     180.393     568.843
  C      457.341     178.297     569.434
  O      456.384     178.689     568.429
  C      457.752     176.825     569.216
  N      456.357     173.709     572.975
  C      455.598     174.326     572.000
  N      454.259     174.096     572.059
  N      456.084     175.098     571.066
  C      457.421     175.294     571.176
  C      458.291     174.755     572.113
  C      457.736     173.846     573.099
  O      458.385     173.264     573.970
  N      459.553     175.257     571.965
  C      459.473     176.049     570.917
  N      458.195     176.117     570.405
  O      462.197     179.381     565.207
  O      462.494     181.540     566.566
  H      456.245     179.648     568.522
  H      462.990     181.842     565.778
  H      455.931     173.134     573.673
  H      460.297     176.596     570.482
  H      456.960     176.233     568.764
  H      456.900     178.513     570.410
  H      453.809     173.635     572.834
  H      459.274     178.930     570.104
  H      453.675     174.588     571.385
  H      458.734     178.533     567.083
  H      461.249     178.111     568.772
  H      461.067     177.695     567.049
  P      458.842     181.590     569.845
  C      456.545     181.294     571.003
  O      457.956     181.343     571.153
  O      458.734     182.955     569.246
  O      460.308     181.218     570.359
  H      461.034     181.531     569.741
  H      456.091     181.124     571.957
  H      456.285     180.498     570.337
  H      456.196     182.223     570.603

 6  7  8  9  10  11  12  13  14  15  26  29  33  34 0
 6-311+G(2d,p)
 ****
 36  38  39  40  41 0
 6-311+G(2d,p)
 ****
 1  2  3  4  5  16  17  18  19  20  21  22  23  24  25 0
 3-21G
 ****
 27  28  30  31  32  35  37  42  43  44  45  46  47 0
 3-21G
 ****
 48  49 0
 3-21G
 ****


