%nproc=1
%NoSave
%Mem=1900MB
#P OB98/GEN NMR

erre ene a

0 1
  C     -624.650     126.806    -548.792
  O     -625.110     125.474    -548.879
  H     -624.041     127.032    -549.666
  H     -624.029     126.922    -547.896
  H     -625.492     127.504    -548.753
  P     -626.320     125.049    -547.927
  C     -625.723     122.554    -547.465
  O     -626.563     123.471    -548.169
  C     -625.945     121.142    -548.002
  O     -627.362     120.834    -547.959
  C     -625.457     120.917    -549.437
  O     -624.919     119.596    -549.546
  C     -626.748     120.970    -550.235
  O     -626.642     120.288    -551.487
  C     -627.715     120.310    -549.250
  N     -631.099     119.689    -552.910
  C     -629.844     119.138    -552.743
  N     -629.389     118.347    -553.743
  N     -629.093     119.359    -551.700
  C     -629.684     120.153    -550.773
  C     -630.920     120.757    -550.810
  C     -631.726     120.530    -551.986
  O     -632.846     121.002    -552.187
  N     -631.120     121.536    -549.693
  C     -629.988     121.418    -548.994
  N     -629.094     120.591    -549.597
  O     -627.582     125.728    -548.644
  O     -626.199     125.465    -546.500
  H     -627.476     120.426    -551.983
  H     -627.768     126.598    -548.233
  H     -631.633     119.517    -553.751
  H     -629.788     121.924    -548.057
  H     -627.603     119.211    -549.226
  H     -627.033     122.004    -550.427
  H     -629.922     118.128    -554.572
  H     -624.725     121.662    -549.781
  H     -628.478     117.917    -553.621
  H     -625.439     120.428    -547.321
  H     -625.969     122.589    -546.399
  H     -624.675     122.863    -547.593
  P     -623.506     119.429    -550.312
  C     -623.388     117.052    -551.398
  O     -623.096     117.869    -550.274
  O     -622.467     120.114    -549.287
  O     -623.454     120.069    -551.654
  H     -621.763     120.548    -549.791
  H     -623.053     116.053    -551.210
  H     -622.887     117.440    -552.260
  H     -624.444     117.047    -551.571

 6  7  8  9  10  11  12  13  14  15  26  29  33  34 0
 6-311+G(2d,p)
 ****
 36  38  39  40  41 0
 6-311+G(2d,p)
 ****
 1  2  3  4  5  16  17  18  19  20  21  22  23  24  25 0
 3-21G
 ****
 27  28  30  31  32  35  37  42  43  44  45  46  47 0
 3-21G
 ****
 48  49 0
 3-21G
 ****


