%nproc=1
%NoSave
%Mem=1900MB
#P OB98/GEN NMR

erre ene a

0 1
  C      191.769    -115.258      46.550
  O      191.815    -116.544      47.134
  H      192.141    -114.530      47.274
  H      190.736    -115.007      46.298
  H      192.393    -115.214      45.653
  P      191.629    -117.795      46.145
  C      189.483    -118.627      47.343
  O      190.823    -118.912      46.970
  C      188.711    -119.923      47.572
  O      187.354    -119.637      47.972
  C      188.616    -120.824      46.344
  O      189.779    -121.627      46.193
  C      187.410    -121.672      46.710
  O      187.797    -122.678      47.672
  C      186.486    -120.643      47.375
  N      181.917    -120.886      45.189
  C      182.550    -121.790      46.021
  N      181.873    -122.923      46.304
  N      183.742    -121.604      46.528
  C      184.311    -120.437      46.138
  C      183.787    -119.467      45.314
  C      182.464    -119.678      44.777
  O      181.854    -118.903      44.043
  N      184.658    -118.422      45.149
  C      185.716    -118.772      45.853
  N      185.557    -119.988      46.471
  O      193.114    -118.392      46.049
  O      191.089    -117.465      44.795
  H      188.355    -123.324      47.200
  H      193.510    -118.117      45.200
  H      181.004    -121.083      44.819
  H      186.616    -118.180      45.955
  H      185.889    -121.081      48.182
  H      186.990    -122.200      45.853
  H      180.962    -123.139      45.930
  H      188.399    -120.249      45.435
  H      182.316    -123.598      46.914
  H      189.190    -120.455      48.404
  H      189.004    -118.054      46.542
  H      189.488    -118.029      48.259
  P      190.435    -121.747      44.735
  C      188.505    -123.000      43.539
  O      189.827    -123.070      44.055
  O      191.946    -122.156      45.063
  O      190.373    -120.510      43.906
  H      192.548    -121.421      44.832
  H      188.235    -123.947      43.120
  H      188.458    -122.247      42.780
  H      187.826    -122.753      44.329

 6  7  8  9  10  11  12  13  14  15  26  29  33  34 0
 6-311+G(2d,p)
 ****
 36  38  39  40  41 0
 6-311+G(2d,p)
 ****
 1  2  3  4  5  16  17  18  19  20  21  22  23  24  25 0
 3-21G
 ****
 27  28  30  31  32  35  37  42  43  44  45  46  47 0
 3-21G
 ****
 48  49 0
 3-21G
 ****


