%nproc=1
%NoSave
%Mem=1900MB
#P OB98/GEN NMR

erre ene a

0 1
  C     -426.376     -12.320     243.289
  O     -427.429     -11.951     242.413
  P     -428.825     -12.735     242.547
  C     -428.114     -14.587     240.808
  O     -428.514     -14.253     242.133
  C     -427.705     -16.058     240.735
  O     -426.483     -16.264     241.475
  C     -428.716     -17.027     241.338
  O     -429.823     -17.242     240.478
  C     -427.842     -18.254     241.578
  O     -427.681     -18.995     240.352
  C     -426.504     -17.613     241.998
  N     -426.287     -17.627     243.440
  C     -425.751     -18.795     243.979
  O     -425.468     -19.779     243.293
  N     -425.572     -18.804     245.336
  C     -425.923     -17.807     246.197
  O     -425.781     -17.887     247.411
  C     -426.514     -16.609     245.583
  C     -426.665     -16.573     244.253
  O     -429.624     -12.130     241.298
  O     -429.481     -12.544     243.876
  H     -429.019     -11.832     240.590
  H     -426.957     -19.630     240.511
  H     -425.166     -19.629     245.743
  H     -426.816     -15.799     246.237
  H     -427.106     -15.705     243.781
  H     -425.666     -18.138     241.515
  H     -428.269     -18.937     242.321
  H     -429.074     -16.637     242.306
  H     -427.516     -16.311     239.683
  H     -427.268     -13.959     240.523
  H     -428.946     -14.378     240.125
  P     -431.226     -17.604     241.184
  C     -430.959     -20.177     240.802
  O     -431.087     -19.106     241.717
  O     -432.191     -17.715     239.912
  O     -431.658     -16.599     242.204
  H     -431.778     -18.190     239.161
  H     -430.528     -21.034     241.324
  H     -430.309     -19.906     239.961
  H     -431.946     -20.453     240.425
  H     -425.515     -11.718     243.086
  H     -426.133     -13.351     243.140
  H     -426.685     -12.169     244.302

 3  4  5  6  7  8  9  10  11  12  13  24  28  29  30  31  32 0
 6-311+G(2d,p)
 ****
 33  34 0
 6-311+G(2d,p)
 ****
 1  2  14  15  16  17  18  19  20  21  22  23  25  26  27 0
 3-21G
 ****
 35  36  37  38  39  40  41  42  43  44  45 0
 3-21G
 ****


