%nproc=1
%NoSave
%Mem=1900MB
#P OB98/GEN NMR

erre ene a

0 1
  C     -368.841    -781.924     206.634
  O     -369.167    -781.064     205.560
  H     -369.209    -782.930     206.428
  H     -367.754    -781.962     206.740
  H     -369.271    -781.555     207.571
  P     -370.701    -780.618     205.410
  C     -370.744    -778.027     205.304
  O     -370.826    -779.186     206.120
  C     -369.300    -777.529     205.218
  O     -368.501    -778.530     204.506
  C     -369.131    -776.187     204.477
  O     -368.126    -775.425     205.147
  C     -368.610    -776.597     203.112
  O     -367.853    -775.573     202.476
  C     -367.777    -777.837     203.476
  N     -364.222    -779.808     200.431
  C     -364.144    -779.236     201.648
  N     -365.160    -778.779     202.411
  C     -366.346    -779.028     201.842
  C     -366.582    -779.608     200.606
  C     -365.438    -779.999     199.874
  N     -365.504    -780.526     198.591
  N     -367.941    -779.640     200.339
  C     -368.505    -779.071     201.381
  N     -367.582    -778.679     202.318
  O     -371.445    -781.609     206.428
  O     -371.266    -780.707     204.032
  H     -368.380    -774.748     202.477
  H     -371.676    -782.440     205.970
  H     -363.142    -779.106     202.057
  H     -369.562    -778.881     201.493
  H     -366.787    -777.575     203.876
  H     -369.447    -776.865     202.462
  H     -370.059    -775.597     204.407
  H     -368.901    -777.456     206.226
  H     -371.367    -777.236     205.733
  H     -364.628    -780.660     198.112
  H     -366.403    -780.563     198.134
  H     -371.127    -778.261     204.297
  P     -368.620    -774.329     206.215
  C     -367.237    -775.147     208.261
  O     -368.516    -774.965     207.686
  O     -370.209    -774.260     205.961
  O     -367.983    -772.989     206.065
  H     -370.538    -773.361     206.142
  H     -367.342    -775.577     209.235
  H     -366.744    -774.201     208.340
  H     -366.658    -775.800     207.643

 6  7  8  9  10  11  12  13  14  15  25  28  32  33  34  35 0
 6-311+G(2d,p)
 ****
 36  39  40 0
 6-311+G(2d,p)
 ****
 1  2  3  4  5  16  17  18  19  20  21  22  23  24 0
 3-21G
 ****
 26  27  29  30  31  37  38  41  42  43  44  45  46  47 0
 3-21G
 ****
 48 0
 3-21G
 ****


