%nproc=1
%NoSave
%Mem=1900MB
#P OB98/GEN NMR

erre ene a

0 1
  C     -893.870    -654.742    -893.280
  O     -894.880    -653.730    -893.170
  H     -893.690    -654.874    -894.340
  H     -894.260    -655.675    -892.850
  H     -892.950    -654.448    -892.820
  P     -895.120    -653.052    -891.720
  C     -895.460    -650.642    -892.550
  O     -894.650    -651.552    -891.790
  C     -894.750    -650.177    -893.830
  O     -894.490    -651.398    -894.730
  C     -895.610    -649.153    -894.670
  O     -894.800    -648.254    -895.450
  C     -896.430    -650.109    -895.610
  O     -896.880    -649.453    -896.810
  C     -895.340    -651.232    -895.880
  N     -898.570    -653.735    -898.930
  C     -898.400    -652.366    -898.750
  N     -899.220    -651.534    -899.510
  N     -897.560    -651.804    -897.900
  C     -896.880    -652.765    -897.230
  C     -896.960    -654.178    -897.260
  C     -897.900    -654.738    -898.200
  O     -898.060    -655.909    -898.360
  N     -896.100    -654.769    -896.370
  C     -895.540    -653.725    -895.720
  N     -895.930    -652.510    -896.250
  O     -893.970    -653.722    -890.810
  O     -896.480    -653.293    -891.100
  H     -896.060    -649.106    -897.240
  H     -894.240    -653.691    -889.870
  H     -899.210    -654.109    -899.600
  H     -894.770    -653.869    -894.930
  H     -894.740    -650.893    -896.750
  H     -897.310    -650.497    -895.090
  H     -900.000    -651.958    -900.000
  H     -896.320    -648.603    -894.060
  H     -899.320    -650.575    -899.160
  H     -893.740    -649.752    -893.570
  H     -895.700    -649.748    -891.920
  H     -896.460    -651.117    -892.830
  P     -893.690    -647.340    -894.680
  C     -891.340    -647.882    -895.760
  O     -892.270    -648.077    -894.700
  O     -894.190    -647.413    -893.100
  O     -893.710    -645.946    -895.120
  H     -894.470    -646.552    -892.830
  H     -890.462    -648.465    -895.576
  H     -891.075    -646.847    -895.816
  H     -891.784    -648.188    -896.684

 6  7  8  9  10  11  12  13  14  15  26  29  33  34 0
 6-311+G(2d,p)
 ****
 36  38  39  40  41 0
 6-311+G(2d,p)
 ****
 1  2  3  4  5  16  17  18  19  20  21  22  23  24  25 0
 3-21G
 ****
 27  28  30  31  32  35  37  42  43  44  45  46  47 0
 3-21G
 ****
 48  49 0
 3-21G
 ****


