%nproc=1
%NoSave
%Mem=1900MB
#P OB98/GEN NMR

erre ene a

0 1
  C      -31.697    -145.468       2.237
  O      -32.095    -146.039       3.472
  H      -31.135    -146.219       1.674
  H      -31.053    -144.600       2.410
  H      -32.578    -145.179       1.658
  P      -32.910    -145.085       4.473
  C      -34.748    -146.902       4.615
  O      -34.439    -145.548       4.311
  C      -35.886    -147.400       3.722
  O      -35.469    -147.413       2.347
  C      -36.354    -148.818       4.038
  O      -37.288    -148.805       5.113
  C      -37.026    -149.200       2.723
  O      -38.358    -148.641       2.676
  C      -36.134    -148.517       1.673
  N      -35.048    -151.627      -2.267
  C      -36.207    -151.069      -1.857
  N      -36.434    -150.304      -0.770
  C      -35.303    -150.110      -0.073
  C      -34.042    -150.614      -0.375
  C      -33.933    -151.403      -1.531
  N      -32.746    -151.977      -1.948
  N      -33.117    -150.213       0.571
  C      -33.791    -149.426       1.384
  N      -35.127    -149.363       1.061
  O      -32.645    -143.619       4.330
  O      -32.506    -145.713       5.891
  H      -38.819    -148.948       3.481
  H      -32.493    -146.688       5.843
  H      -37.079    -151.276      -2.487
  H      -33.364    -148.867       2.207
  H      -36.729    -148.090       0.852
  H      -37.135    -150.278       2.606
  H      -35.517    -149.497       4.227
  H      -36.720    -146.685       3.801
  H      -35.040    -146.995       5.673
  H      -32.799    -152.673      -2.669
  H      -31.952    -151.912      -1.327
  H      -33.844    -147.494       4.451
  P      -36.980    -149.575       6.486
  C      -38.043    -147.882       8.110
  O      -36.826    -148.426       7.589
  O      -35.857    -150.558       6.406
  O      -38.378    -150.258       6.874
  H      -38.233    -150.960       7.540
  H      -37.815    -147.128       8.834
  H      -38.612    -148.661       8.573
  H      -38.611    -147.451       7.312

 6  7  8  9  10  11  12  13  14  15  25  28  32  33  34  35 0
 6-311+G(2d,p)
 ****
 36  39  40 0
 6-311+G(2d,p)
 ****
 1  2  3  4  5  16  17  18  19  20  21  22  23  24 0
 3-21G
 ****
 26  27  29  30  31  37  38  41  42  43  44  45  46  47 0
 3-21G
 ****
 48 0
 3-21G
 ****


