%nproc=1
%NoSave
%Mem=1900MB
#P OB98/GEN NMR

erre ene a

0 1
  C       81.392    -137.464      44.775
  O       82.238    -137.943      43.751
  H       80.376    -137.819      44.582
  H       81.382    -136.371      44.782
  H       81.714    -137.841      45.749
  P       83.794    -137.556      43.801
  C       83.386    -135.146      42.943
  O       83.951    -136.419      42.674
  C       83.667    -134.190      41.788
  O       85.081    -133.934      41.649
  C       83.235    -134.696      40.416
  O       81.833    -134.671      40.212
  C       83.966    -133.706      39.529
  O       83.279    -132.442      39.546
  C       85.330    -133.613      40.252
  N       86.329    -134.519      39.687
  C       87.107    -134.018      38.637
  O       86.935    -132.874      38.219
  N       88.044    -134.838      38.056
  C       88.176    -136.060      38.472
  N       89.115    -136.831      37.857
  C       87.365    -136.635      39.562
  C       86.473    -135.819      40.119
  O       84.756    -138.695      43.702
  O       83.952    -136.701      45.143
  H       82.476    -132.550      39.005
  H       84.902    -136.444      45.228
  H       87.493    -137.667      39.851
  H       85.834    -136.171      40.923
  H       85.721    -132.589      40.219
  H       84.031    -134.024      38.488
  H       83.639    -135.698      40.225
  H       83.189    -133.231      42.031
  H       89.655    -136.410      37.113
  H       83.816    -134.771      43.876
  H       89.233    -137.813      38.064
  H       82.302    -135.234      43.062
  P       81.139    -136.048      39.755
  C       81.847    -135.642      37.274
  O       80.799    -135.884      38.199
  O       79.715    -135.991      40.476
  O       81.906    -137.288      40.090
  H       79.721    -136.519      41.297
  H       81.440    -135.560      36.288
  H       82.545    -136.452      37.306
  H       82.346    -134.731      37.531

 6  7  8  9  10  11  12  13  14  15  16  26  30  31  32  33  35 0
 6-311+G(2d,p)
 ****
 37  38 0
 6-311+G(2d,p)
 ****
 1  2  3  4  5  17  18  19  20  21  22  23  24  25 0
 3-21G
 ****
 27  28  29  34  36  39  40  41  42  43  44  45  46 0
 3-21G
 ****


