%nproc=1
%NoSave
%Mem=1900MB
#P OB98/GEN NMR

erre ene a

0 1
  C      513.757    -260.117      91.538
  O      513.039    -260.403      92.725
  H      514.085    -259.074      91.564
  H      513.106    -260.255      90.670
  H      514.635    -260.763      91.456
  P      512.560    -261.917      92.941
  C      512.714    -261.730      95.537
  O      511.894    -261.976      94.403
  C      511.894    -261.913      96.816
  O      511.058    -260.736      97.003
  C      510.969    -263.136      96.778
  O      510.919    -263.726      98.082
  C      509.615    -262.540      96.425
  O      508.514    -263.344      96.835
  C      509.692    -261.193      97.161
  N      508.754    -260.210      96.628
  C      507.402    -260.418      96.863
  O      506.941    -261.337      97.548
  N      506.546    -259.521      96.268
  C      506.910    -258.478      95.462
  O      506.095    -257.727      94.938
  C      508.359    -258.309      95.244
  C      509.194    -259.170      95.829
  O      513.933    -262.717      93.133
  O      511.712    -262.488      91.852
  H      514.267    -263.036      92.273
  H      507.710    -262.996      96.394
  H      505.560    -259.665      96.433
  H      508.671    -257.504      94.603
  H      510.269    -259.084      95.667
  H      509.520    -261.332      98.230
  H      509.546    -262.385      95.346
  H      511.287    -263.884      96.047
  H      512.575    -261.959      97.667
  H      513.087    -260.699      95.489
  H      513.566    -262.417      95.526
  P      511.611    -265.168      98.270
  C      512.118    -264.929     100.830
  O      511.366    -265.568      99.808
  O      513.158    -264.782      98.197
  O      511.154    -266.165      97.259
  H      513.371    -263.927      98.619
  H      511.825    -265.316     101.783
  H      511.935    -263.875     100.802
  H      513.160    -265.114     100.675

 6  7  8  9  10  11  12  13  14  15  16  27  31  32  33  34  35 0
 6-311+G(2d,p)
 ****
 36  37 0
 6-311+G(2d,p)
 ****
 1  2  3  4  5  17  18  19  20  21  22  23  24  25 0
 3-21G
 ****
 26  28  29  30  38  39  40  41  42  43  44  45 0
 3-21G
 ****


