%nproc=1
%NoSave
%Mem=1900MB
#P OB98/GEN NMR

erre ene a

0 1
  C      -14.961    -210.128    -275.096
  O      -15.771    -210.572    -274.022
  P      -15.139    -210.868    -272.573
  C      -17.350    -210.437    -271.302
  O      -16.366    -211.395    -271.690
  C      -18.745    -211.070    -271.357
  O      -19.234    -211.040    -272.712
  C      -18.784    -212.536    -270.933
  O      -18.709    -212.655    -269.520
  C      -20.099    -212.977    -271.567
  O      -21.214    -212.557    -270.748
  C      -20.100    -212.184    -272.893
  N      -19.669    -212.998    -274.031
  C      -20.681    -213.659    -274.736
  O      -21.863    -213.544    -274.416
  N      -20.330    -214.413    -275.830
  C      -19.073    -214.523    -276.175
  N      -18.798    -215.219    -277.308
  C      -17.984    -213.877    -275.424
  C      -18.341    -213.140    -274.378
  O      -14.380    -209.726    -271.976
  O      -14.265    -212.189    -272.781
  H      -22.020    -212.726    -271.271
  H      -13.331    -212.008    -273.061
  H      -16.954    -214.006    -275.742
  H      -17.599    -212.625    -273.788
  H      -21.097    -211.783    -273.096
  H      -20.174    -214.059    -271.700
  H      -17.955    -213.088    -271.385
  H      -19.415    -210.470    -270.733
  H      -19.592    -215.492    -277.884
  H      -17.316    -209.598    -272.002
  H      -17.919    -215.113    -277.798
  H      -17.129    -210.074    -270.297
  P      -17.513    -213.545    -268.919
  C      -17.031    -212.278    -266.692
  O      -17.633    -213.400    -267.317
  O      -16.205    -212.703    -269.295
  O      -17.460    -214.943    -269.439
  H      -15.762    -213.099    -270.075
  H      -17.404    -212.213    -265.675
  H      -17.288    -211.366    -267.232
  H      -15.944    -212.406    -266.676
  H      -15.567    -209.990    -275.967
  H      -14.206    -210.859    -275.299
  H      -14.498    -209.200    -274.833

 3  4  5  6  7  8  9  10  11  12  13  23  27  28  29  30  32 0
 6-311+G(2d,p)
 ****
 34  35 0
 6-311+G(2d,p)
 ****
 1  2  14  15  16  17  18  19  20  21  22  24  25  26 0
 3-21G
 ****
 31  33  36  37  38  39  40  41  42  43  44  45  46 0
 3-21G
 ****


