%nproc=1
%NoSave
%Mem=1900MB
#P OB98/GEN NMR

erre ene a

0 1
  C     -204.180    -893.280    -170.288
  O     -204.345    -894.620    -169.855
  H     -203.423    -892.800    -169.651
  H     -205.115    -892.730    -170.190
  H     -203.830    -893.250    -171.328
  P     -205.451    -895.520    -170.573
  C     -203.598    -895.980    -172.312
  O     -204.973    -895.710    -172.104
  C     -203.313    -896.160    -173.809
  O     -204.036    -897.350    -174.252
  C     -203.790    -894.960    -174.643
  O     -202.785    -894.430    -175.488
  C     -205.068    -895.490    -175.313
  O     -205.390    -894.850    -176.529
  C     -204.800    -897.000    -175.422
  N     -206.026    -897.810    -175.492
  C     -206.286    -898.460    -176.679
  O     -205.562    -898.440    -177.677
  N     -207.449    -899.200    -176.716
  C     -208.341    -899.330    -175.690
  O     -209.362    -900.000    -175.775
  C     -208.009    -898.590    -174.457
  C     -206.892    -897.870    -174.414
  O     -206.864    -895.080    -170.413
  O     -205.216    -896.990    -169.945
  H     -206.279    -895.160    -176.809
  H     -205.904    -897.170    -169.274
  H     -207.646    -899.680    -177.564
  H     -208.707    -898.650    -173.649
  H     -206.631    -897.300    -173.528
  H     -204.205    -897.220    -176.299
  H     -205.905    -895.320    -174.622
  H     -204.062    -894.120    -173.995
  H     -202.245    -896.350    -173.952
  H     -203.351    -896.910    -171.771
  H     -203.002    -895.150    -171.916
  P     -201.958    -893.090    -175.197
  C     -199.746    -894.310    -175.908
  O     -200.434    -893.490    -174.959
  O     -202.568    -892.160    -174.211
  O     -201.934    -892.350    -176.648
  H     -201.954    -891.380    -176.443
  H     -198.741    -894.470    -175.579
  H     -199.736    -893.822    -176.860
  H     -200.247    -895.252    -175.995

 6  7  8  9  10  11  12  13  14  15  16  26  31  32  33  34  35 0
 6-311+G(2d,p)
 ****
 36  37 0
 6-311+G(2d,p)
 ****
 1  2  3  4  5  17  18  19  20  21  22  23  24  25 0
 3-21G
 ****
 27  28  29  30  38  39  40  41  42  43  44  45 0
 3-21G
 ****


