%nproc=1
%NoSave
%Mem=1900MB
#P OB98/GEN NMR

erre ene a

0 1
  C     -895.900    -899.340    -892.090
  O     -894.730    -898.550    -892.190
  H     -895.980    -900.000    -892.970
  H     -895.840    -899.960    -891.190
  H     -896.780    -898.700    -892.030
  P     -894.610    -897.600    -893.480
  C     -894.750    -895.400    -892.100
  O     -895.360    -896.240    -893.070
  C     -895.320    -893.990    -892.240
  O     -895.110    -893.490    -893.580
  C     -896.820    -893.900    -891.990
  O     -897.140    -893.840    -890.600
  C     -897.140    -892.600    -892.690
  O     -896.740    -891.480    -891.880
  C     -896.260    -892.700    -893.940
  N     -897.960    -891.940    -898.720
  C     -897.270    -891.130    -897.870
  N     -896.830    -891.420    -896.630
  C     -897.160    -892.670    -896.270
  C     -897.870    -893.590    -897.040
  C     -898.270    -893.180    -898.320
  N     -899.000    -893.980    -899.170
  N     -898.030    -894.780    -896.340
  C     -897.440    -894.570    -895.180
  N     -896.930    -893.300    -895.080
  O     -895.610    -898.250    -894.540
  O     -893.230    -897.400    -894.020
  H     -897.340    -891.450    -891.110
  H     -895.450    -897.890    -895.430
  H     -897.040    -890.140    -898.240
  H     -897.350    -895.280    -894.380
  H     -895.890    -891.700    -894.270
  H     -898.220    -892.470    -892.890
  H     -897.360    -894.720    -892.490
  H     -894.770    -893.320    -891.550
  H     -893.670    -895.380    -892.270
  H     -899.370    -893.550    -900.000
  H     -899.370    -894.860    -898.840
  H     -894.950    -895.790    -891.100
  P     -898.700    -893.770    -890.220
  C     -899.300    -896.300    -889.960
  O     -899.370    -895.120    -890.790
  O     -899.260    -892.650    -891.210
  O     -898.980    -893.450    -888.780
  H     -900.000    -892.160    -890.800
  H     -899.781    -897.116    -890.458
  H     -899.792    -896.111    -889.029
  H     -898.275    -896.548    -889.778

 6  7  8  9  10  11  12  13  14  15  25  28  32  33  34  35 0
 6-311+G(2d,p)
 ****
 36  39  40 0
 6-311+G(2d,p)
 ****
 1  2  3  4  5  16  17  18  19  20  21  22  23  24 0
 3-21G
 ****
 26  27  29  30  31  37  38  41  42  43  44  45  46  47 0
 3-21G
 ****
 48 0
 3-21G
 ****


