%nproc=1
%NoSave
%Mem=1900MB
#P OB98/GEN NMR

erre ene a

0 1
  C      878.550     -66.701    -318.463
  O      877.404     -66.384    -317.684
  P      877.330     -67.011    -316.200
  C      874.857     -66.187    -316.275
  O      875.770     -67.220    -315.888
  C      873.416     -66.660    -316.074
  O      873.093     -67.663    -317.060
  C      873.149     -67.296    -314.729
  O      873.012     -66.311    -313.730
  C      871.858     -68.061    -315.001
  O      870.713     -67.231    -314.834
  C      872.027     -68.464    -316.496
  N      872.283     -69.882    -316.673
  C      871.156     -70.726    -316.589
  O      870.034     -70.246    -316.359
  N      871.344     -72.089    -316.728
  C      872.530     -72.554    -316.927
  N      872.654     -73.909    -317.061
  C      873.747     -71.710    -316.991
  C      873.553     -70.400    -316.857
  O      877.734     -65.769    -315.261
  O      878.208     -68.200    -315.973
  H      869.952     -67.748    -315.150
  H      878.127     -66.081    -314.433
  H      874.720     -72.154    -317.159
  H      874.377     -69.702    -316.889
  H      871.113     -68.213    -317.064
  H      871.742     -68.922    -314.331
  H      873.952     -67.995    -314.466
  H      872.755     -65.787    -316.244
  H      871.811     -74.465    -316.981
  H      875.018     -65.935    -317.324
  H      873.532     -74.371    -317.228
  H      875.064     -65.294    -315.678
  P      873.151     -66.776    -312.195
  C      872.147     -64.488    -311.597
  O      872.073     -65.885    -311.409
  O      874.530     -66.095    -311.750
  O      873.119     -68.239    -311.927
  H      874.775     -66.396    -310.856
  H      871.267     -64.016    -311.139
  H      872.150     -64.248    -312.663
  H      873.049     -64.091    -311.113
  H      878.474     -66.225    -319.419
  H      878.609     -67.761    -318.596
  H      879.429     -66.355    -317.961

 3  4  5  6  7  8  9  10  11  12  13  21  23  27  28  29  30  32 0
 6-311+G(2d,p)
 ****
 34  35 0
 6-311+G(2d,p)
 ****
 1  2  14  15  16  17  18  19  20  22  24  25  26 0
 3-21G
 ****
 31  33  36  37  38  39  40  41  42  43  44  45  46 0
 3-21G
 ****


