%nproc=1
%NoSave
%Mem=1900MB
#P OB98/GEN NMR

erre ene a

0 1
  C      200.999    -151.040    -335.557
  O      201.218    -152.326    -336.102
  H      201.531    -150.304    -336.164
  H      201.381    -150.992    -334.531
  H      199.931    -150.807    -335.568
  P      200.565    -153.564    -335.318
  C      200.328    -154.859    -337.537
  O      200.901    -154.843    -336.233
  C      200.840    -156.061    -338.329
  O      202.249    -155.854    -338.622
  C      200.715    -157.393    -337.580
  O      200.409    -158.432    -338.515
  C      202.114    -157.618    -337.031
  O      202.376    -158.988    -336.753
  C      202.969    -157.007    -338.142
  N      207.460    -158.849    -336.608
  C      206.395    -159.436    -337.200
  N      205.240    -158.864    -337.595
  C      205.273    -157.533    -337.385
  C      206.287    -156.794    -336.795
  C      207.424    -157.513    -336.384
  N      208.500    -156.935    -335.754
  N      205.929    -155.462    -336.713
  C      204.723    -155.396    -337.250
  N      204.281    -156.626    -337.653
  O      199.129    -153.406    -334.950
  O      201.573    -153.748    -334.089
  H      203.321    -159.075    -336.497
  H      202.506    -153.726    -334.385
  H      206.475    -160.513    -337.360
  H      204.132    -154.490    -337.354
  H      203.118    -157.700    -338.985
  H      202.237    -157.053    -336.095
  H      199.964    -157.371    -336.791
  H      200.319    -156.098    -339.293
  H      200.579    -153.930    -338.070
  H      209.276    -157.527    -335.496
  H      208.499    -155.935    -335.582
  H      199.237    -154.910    -337.425
  P      198.880    -158.873    -338.718
  C      199.429    -160.267    -340.816
  O      198.846    -160.265    -339.519
  O      197.967    -157.815    -339.244
  O      198.447    -159.318    -337.235
  H      197.542    -158.986    -337.053
  H      199.344    -161.244    -341.244
  H      200.462    -159.998    -340.743
  H      198.919    -159.561    -341.437

 6  7  8  9  10  11  12  13  14  15  25  28  32  33  34  35 0
 6-311+G(2d,p)
 ****
 36  39  40 0
 6-311+G(2d,p)
 ****
 1  2  3  4  5  16  17  18  19  20  21  22  23  24 0
 3-21G
 ****
 26  27  29  30  31  37  38  41  42  43  44  45  46  47 0
 3-21G
 ****
 48 0
 3-21G
 ****


