%nproc=1
%NoSave
%Mem=1900MB
#P OB98/GEN NMR

erre ene a

0 1
  C      115.138      89.726     -89.365
  O      114.023      88.912     -89.059
  H      115.932      89.519     -88.643
  H      114.872      90.785     -89.297
  H      115.510      89.500     -90.370
  P      112.689      89.083     -89.928
  C      110.783      90.829     -90.065
  O      111.971      90.413     -89.395
  C      110.334      92.201     -89.558
  O      111.328      93.198     -89.867
  C      109.035      92.700     -90.184
  O      107.922      92.021     -89.634
  C      109.122      94.183     -89.860
  O      108.760      94.433     -88.494
  C      110.631      94.452     -90.083
  N      110.936      94.992     -91.405
  C      110.387      96.249     -91.697
  O      109.681      96.823     -90.869
  N      110.644      96.804     -92.927
  C      111.412      96.188     -93.770
  N      111.631      96.795     -94.973
  C      112.038      94.881     -93.489
  C      111.754      94.342     -92.305
  O      111.793      87.886     -90.008
  O      113.223      89.516     -91.377
  H      107.811      94.213     -88.421
  H      113.322      88.736     -91.952
  H      112.682      94.408     -94.218
  H      112.173      93.384     -92.014
  H      111.010      95.156     -89.329
  H      108.458      94.782     -90.483
  H      109.067      92.581     -91.275
  H      110.250      92.145     -88.466
  H      111.194      97.699     -95.111
  H      110.014      90.080     -89.853
  H      112.330      96.491     -95.631
  H      110.943      90.864     -91.149
  P      106.563      91.832     -90.460
  C      104.556      93.335     -91.041
  O      105.857      93.277     -90.478
  O      105.689      90.713     -89.998
  O      107.057      91.672     -91.973
  H      107.412      90.759     -92.125
  H      104.193      94.341     -90.997
  H      103.900      92.694     -90.490
  H      104.594      93.014     -92.061

 6  7  8  9  10  11  12  13  14  15  16  26  30  31  32  33  35 0
 6-311+G(2d,p)
 ****
 37  38 0
 6-311+G(2d,p)
 ****
 1  2  3  4  5  17  18  19  20  21  22  23  24  25 0
 3-21G
 ****
 27  28  29  34  36  39  40  41  42  43  44  45  46 0
 3-21G
 ****


