%nproc=1
%NoSave
%Mem=1900MB
#P OB98/GEN NMR

erre ene a

0 1
  C      106.557     302.968       9.603
  O      105.688     303.929      10.164
  H      107.298     303.483       8.986
  H      105.995     302.278       8.970
  H      107.082     302.413      10.386
  P      104.619     303.458      11.260
  C      105.504     305.400      12.712
  O      104.363     304.710      12.226
  C      105.115     306.778      13.260
  O      104.768     307.644      12.136
  C      103.899     306.760      14.209
  O      104.075     307.840      15.136
  C      102.771     307.047      13.233
  O      101.562     307.355      13.879
  C      103.439     308.146      12.396
  N      102.762     308.480      11.149
  C      101.628     309.283      11.224
  O      101.158     309.734      12.267
  N      101.019     309.564      10.028
  C      101.431     309.145       8.798
  O      100.864     309.455       7.759
  C      102.631     308.293       8.784
  C      103.235     308.010       9.940
  O      104.926     302.174      11.956
  O      103.248     303.364      10.433
  H      103.056     302.431      10.224
  H      100.822     307.236      13.245
  H      100.199     310.147      10.063
  H      102.979     307.934       7.826
  H      104.127     307.392       9.960
  H      103.552     309.054      12.996
  H      102.570     306.161      12.626
  H      103.796     305.821      14.758
  H      105.989     307.225      13.747
  H      106.210     305.519      11.884
  H      105.977     304.803      13.498
  P      104.630     307.640      16.629
  C      105.993     309.839      16.520
  O      105.008     309.087      17.218
  O      105.736     306.642      16.736
  O      103.361     307.192      17.495
  H      103.659     306.668      18.262
  H      106.146     310.774      17.017
  H      105.662     310.017      15.518
  H      106.912     309.291      16.500

 6  7  8  9  10  11  12  13  14  15  16  27  31  32  33  34  35 0
 6-311+G(2d,p)
 ****
 36  37 0
 6-311+G(2d,p)
 ****
 1  2  3  4  5  17  18  19  20  21  22  23  24  25 0
 3-21G
 ****
 26  28  29  30  38  39  40  41  42  43  44  45 0
 3-21G
 ****


