%nproc=1
%NoSave
%Mem=1900MB
#P OB98/GEN NMR

erre ene a

0 1
  C     -267.519    -319.211       4.016
  O     -266.977    -318.778       5.246
  H     -267.694    -318.337       3.385
  H     -268.469    -319.723       4.178
  H     -266.817    -319.879       3.505
  P     -266.683    -319.866       6.387
  C     -268.102    -321.139       8.129
  O     -268.108    -320.356       6.941
  C     -269.476    -321.786       8.345
  O     -270.408    -320.737       8.704
  C     -270.003    -322.482       7.080
  O     -270.393    -323.837       7.313
  C     -271.060    -321.512       6.560
  O     -272.073    -322.114       5.784
  C     -271.552    -320.820       7.837
  N     -272.123    -319.494       7.603
  C     -273.511    -319.377       7.648
  O     -274.288    -320.298       7.881
  N     -274.006    -318.117       7.415
  C     -273.272    -317.003       7.132
  O     -273.773    -315.901       6.936
  C     -271.814    -317.198       7.070
  C     -271.315    -318.411       7.301
  O     -265.715    -319.448       7.444
  O     -266.154    -321.145       5.579
  H     -271.638    -322.512       5.001
  H     -265.186    -321.225       5.694
  H     -275.005    -318.016       7.461
  H     -271.203    -316.334       6.835
  H     -270.245    -318.592       7.262
  H     -272.316    -321.425       8.329
  H     -270.560    -320.770       5.920
  H     -269.209    -322.579       6.331
  H     -269.412    -322.477       9.192
  H     -267.859    -320.476       8.967
  H     -267.333    -321.917       8.051
  P     -270.122    -325.055       6.318
  C     -270.997    -325.711       3.924
  O     -271.205    -325.004       5.143
  O     -269.888    -326.382       6.962
  O     -268.754    -324.633       5.568
  H     -268.286    -325.469       5.368
  H     -271.830    -325.550       3.272
  H     -270.902    -326.757       4.130
  H     -270.103    -325.357       3.454

 6  7  8  9  10  11  12  13  14  15  16  26  31  32  33  34  35 0
 6-311+G(2d,p)
 ****
 36  37 0
 6-311+G(2d,p)
 ****
 1  2  3  4  5  17  18  19  20  21  22  23  24  25 0
 3-21G
 ****
 27  28  29  30  38  39  40  41  42  43  44  45 0
 3-21G
 ****


