%nproc=1
%NoSave
%Mem=1900MB
#P OB98/GEN NMR

erre ene a

0 1
  C     -177.844      13.724    -495.068
  O     -177.935      14.698    -494.047
  H     -178.770      13.739    -495.649
  H     -177.719      12.730    -494.631
  H     -177.007      13.949    -495.733
  P     -176.673      14.818    -493.061
  C     -176.071      17.261    -493.688
  O     -175.687      15.893    -493.727
  C     -176.093      17.848    -495.098
  O     -177.007      17.112    -495.943
  C     -176.519      19.310    -495.163
  O     -175.434      20.174    -494.882
  C     -176.994      19.415    -496.608
  O     -175.888      19.585    -497.516
  C     -177.675      18.055    -496.822
  N     -182.201      19.290    -498.689
  C     -180.949      19.368    -499.265
  N     -180.888      19.903    -500.504
  N     -179.853      18.968    -498.677
  C     -180.062      18.485    -497.429
  C     -181.257      18.341    -496.757
  C     -182.464      18.762    -497.433
  O     -183.609      18.661    -497.004
  N     -181.064      17.795    -495.514
  C     -179.755      17.642    -495.421
  N     -179.104      18.064    -496.551
  O     -175.900      13.431    -493.273
  O     -177.003      15.047    -491.625
  H     -176.165      19.327    -498.411
  H     -175.448      13.188    -492.444
  H     -183.010      19.600    -499.200
  H     -179.238      17.237    -494.562
  H     -177.549      17.689    -497.848
  H     -177.652      20.274    -496.754
  H     -181.612      20.515    -500.850
  H     -177.364      19.499    -494.487
  H     -179.971      19.984    -500.923
  H     -175.088      17.722    -495.523
  H     -175.350      17.816    -493.080
  H     -177.063      17.343    -493.231
  P     -175.576      21.162    -493.622
  C     -173.309      20.693    -492.439
  O     -174.718      20.510    -492.437
  O     -177.088      20.941    -493.146
  O     -175.283      22.596    -493.919
  H     -177.369      21.675    -492.571
  H     -172.884      20.201    -491.589
  H     -173.085      21.738    -492.395
  H     -172.897      20.278    -493.335

 6  7  8  9  10  11  12  13  14  15  26  29  33  34 0
 6-311+G(2d,p)
 ****
 36  38  39  40  41 0
 6-311+G(2d,p)
 ****
 1  2  3  4  5  16  17  18  19  20  21  22  23  24  25 0
 3-21G
 ****
 27  28  30  31  32  35  37  42  43  44  45  46  47 0
 3-21G
 ****
 48  49 0
 3-21G
 ****


