%nproc=1
%NoSave
%Mem=1900MB
#P OB98/GEN NMR

erre ene a

0 1
  C      156.763    -156.049     386.880
  O      157.412    -156.393     388.087
  H      157.399    -155.354     386.323
  H      155.804    -155.564     387.084
  H      156.602    -156.946     386.271
  P      156.584    -157.329     389.099
  C      155.933    -155.292     390.592
  O      155.492    -156.333     389.730
  C      154.825    -154.938     391.580
  O      155.240    -153.867     392.452
  C      153.534    -154.458     390.925
  O      152.750    -155.518     390.409
  C      152.864    -153.778     392.108
  O      152.317    -154.778     392.986
  C      154.070    -153.062     392.762
  N      154.243    -151.689     392.287
  C      153.496    -150.700     392.939
  O      152.725    -150.994     393.850
  N      153.612    -149.396     392.512
  C      154.408    -149.102     391.536
  N      154.474    -147.796     391.145
  C      155.226    -150.107     390.838
  C      155.097    -151.364     391.252
  O      157.596    -157.558     390.318
  O      156.025    -158.587     388.521
  H      152.110    -154.331     393.828
  H      157.133    -158.022     391.055
  H      155.870    -149.821     390.016
  H      155.666    -152.161     390.785
  H      153.965    -153.044     393.853
  H      152.044    -153.123     391.814
  H      153.733    -153.699     390.155
  H      154.643    -155.822     392.213
  H      153.856    -147.140     391.602
  H      156.185    -154.418     389.981
  H      154.921    -147.506     390.288
  H      156.823    -155.611     391.146
  P      152.035    -155.289     388.984
  C      149.946    -154.145     390.028
  O      151.057    -154.022     389.145
  O      151.024    -156.528     388.885
  O      152.968    -155.232     387.811
  H      150.982    -156.875     387.975
  H      149.391    -153.230     390.032
  H      150.298    -154.353     391.017
  H      149.315    -154.944     389.698

 6  7  8  9  10  11  12  13  14  15  16  26  30  31  32  33  35 0
 6-311+G(2d,p)
 ****
 37  38 0
 6-311+G(2d,p)
 ****
 1  2  3  4  5  17  18  19  20  21  22  23  24  25 0
 3-21G
 ****
 27  28  29  34  36  39  40  41  42  43  44  45  46 0
 3-21G
 ****


