%nproc=1
%NoSave
%Mem=1900MB
#P OB98/GEN NMR

erre ene a

0 1
  C       45.833     -81.790      12.949
  O       46.251     -83.120      12.616
  P       47.817     -83.457      12.685
  C       48.403     -84.473      10.361
  O       48.114     -84.712      11.731
  C       48.751     -85.784       9.650
  O       47.571     -86.549       9.330
  C       49.474     -85.588       8.325
  O       50.863     -85.369       8.518
  C       49.242     -86.936       7.659
  O       50.169     -87.907       8.185
  C       47.814     -87.274       8.102
  N       46.370     -87.624       3.200
  C       47.464     -88.075       3.852
  N       47.787     -87.926       5.154
  C       46.832     -87.243       5.805
  C       45.662     -86.721       5.274
  C       45.442     -86.934       3.904
  N       44.324     -86.474       3.246
  N       44.931     -86.072       6.246
  C       45.639     -86.214       7.349
  N       46.800     -86.906       7.131
  O       47.990     -84.066      14.155
  O       48.701     -82.272      12.475
  H       49.909     -88.774       7.819
  H       48.863     -83.817      14.515
  H       48.177     -88.629       3.247
  H       45.353     -85.836       8.321
  H       47.686     -88.342       8.318
  H       49.395     -86.903       6.578
  H       49.004     -84.790       7.736
  H       49.377     -86.381      10.327
  H       49.232     -83.766      10.270
  H       44.222     -86.690       2.269
  H       43.618     -85.978       3.771
  H       47.537     -83.993       9.894
  P       51.516     -84.103       7.778
  C       53.466     -85.480       6.752
  O       53.074     -84.444       7.630
  O       51.470     -82.965       8.903
  O       50.811     -83.688       6.529
  H       51.381     -82.087       8.485
  H       54.533     -85.378       6.541
  H       52.915     -85.429       5.808
  H       53.290     -86.452       7.226
  H       44.769     -81.717      12.858
  H       46.297     -81.093      12.283
  H       46.121     -81.567      13.955

 3  4  5  6  7  8  9  10  11  12  22  25  29  30  31  32 0
 6-311+G(2d,p)
 ****
 33  36  37 0
 6-311+G(2d,p)
 ****
 1  2  13  14  15  16  17  18  19  20  21  23  24  26 0
 3-21G
 ****
 27  28  34  35  38  39  40  41  42  43  44  45  46  47  48 0
 3-21G
 ****


