%nproc=1
%NoSave
%Mem=1900MB
#P OB98/GEN NMR

erre ene a

0 1
  C      707.071     275.723    -180.108
  O      708.009     275.217    -179.179
  H      707.118     276.817    -180.092
  H      706.055     275.416    -179.829
  H      707.317     275.381    -181.111
  P      708.068     273.623    -179.014
  C      706.309     273.919    -177.132
  O      706.670     273.235    -178.330
  C      704.869     273.606    -176.746
  O      703.958     274.110    -177.749
  C      704.561     272.119    -176.613
  O      704.941     271.641    -175.327
  C      703.050     272.116    -176.775
  O      702.423     272.473    -175.521
  C      702.814     273.220    -177.820
  N      699.569     272.680    -181.749
  C      699.357     273.006    -180.470
  N      700.263     273.085    -179.457
  C      701.500     272.778    -179.912
  C      701.866     272.428    -181.199
  C      700.830     272.390    -182.157
  N      701.050     272.052    -183.480
  N      703.213     272.192    -181.279
  C      703.668     272.446    -180.062
  N      702.663     272.777    -179.190
  O      709.294     273.087    -178.356
  O      707.853     273.154    -180.534
  H      702.885     271.967    -174.827
  H      707.175     273.705    -180.963
  H      698.333     273.238    -180.200
  H      704.713     272.444    -179.785
  H      701.923     273.824    -177.586
  H      702.655     271.131    -177.060
  H      705.016     271.534    -177.426
  H      704.645     274.142    -175.804
  H      706.428     274.999    -177.265
  H      700.233     271.857    -184.043
  H      701.966     271.708    -183.731
  H      706.992     273.594    -176.346
  P      705.458     270.133    -175.120
  C      703.115     269.403    -174.344
  O      704.148     269.223    -175.295
  O      706.228     269.915    -173.869
  O      706.308     269.822    -176.443
  H      706.870     269.045    -176.296
  H      702.304     268.743    -174.569
  H      702.771     270.416    -174.378
  H      703.490     269.187    -173.365

 6  7  8  9  10  11  12  13  14  15  25  28  32  33  34  35 0
 6-311+G(2d,p)
 ****
 36  39  40 0
 6-311+G(2d,p)
 ****
 1  2  3  4  5  16  17  18  19  20  21  22  23  24 0
 3-21G
 ****
 26  27  29  30  31  37  38  41  42  43  44  45  46  47 0
 3-21G
 ****
 48 0
 3-21G
 ****


