%nproc=1
%NoSave
%Mem=1900MB
#P OB98/GEN NMR

erre ene a

0 1
  C      486.101     255.952      80.598
  O      486.520     255.329      79.377
  P      485.518     254.577      78.373
  C      485.879     256.287      76.457
  O      484.946     255.662      77.335
  C      485.573     255.925      75.003
  O      484.224     256.329      74.655
  C      486.454     256.626      73.964
  O      487.766     256.104      73.928
  C      485.641     256.391      72.689
  O      485.934     255.110      72.115
  C      484.189     256.427      73.204
  N      483.459     257.611      72.780
  C      482.540     257.444      71.739
  O      482.431     256.353      71.171
  N      481.782     258.520      71.359
  C      481.988     259.681      71.897
  N      481.187     260.708      71.487
  C      483.047     259.931      72.899
  C      483.735     258.864      73.288
  O      484.455     253.785      79.058
  O      486.444     253.637      77.465
  H      485.926     252.874      77.144
  H      486.907     255.048      72.044
  H      483.213     260.926      73.286
  H      484.516     258.954      74.038
  H      483.652     255.528      72.871
  H      485.860     257.144      71.920
  H      486.482     257.706      74.182
  H      485.656     254.837      74.896
  H      480.468     260.505      70.810
  H      486.882     255.938      76.711
  H      481.259     261.648      71.854
  H      485.841     257.375      76.612
  P      488.971     257.150      74.101
  C      489.490     256.508      76.566
  O      489.079     257.511      75.662
  O      488.403     258.494      73.435
  O      490.257     256.731      73.464
  H      489.119     258.944      72.945
  H      489.969     256.985      77.423
  H      490.192     255.806      76.105
  H      488.611     255.959      76.912
  H      486.949     256.383      81.088
  H      485.654     255.219      81.237
  H      485.387     256.719      80.380

 3  4  5  6  7  8  9  10  11  12  13  24  27  28  29  30  32 0
 6-311+G(2d,p)
 ****
 34  35 0
 6-311+G(2d,p)
 ****
 1  2  14  15  16  17  18  19  20  21  22  23  25  26 0
 3-21G
 ****
 31  33  36  37  38  39  40  41  42  43  44  45  46 0
 3-21G
 ****


