%nproc=1
%NoSave
%Mem=1900MB
#P OB98/GEN NMR

erre ene a

0 1
  C      561.737     641.781     280.869
  O      560.454     642.067     281.388
  H      562.421     641.624     281.710
  H      562.101     642.628     280.278
  H      561.717     640.878     280.261
  P      559.230     642.241     280.366
  C      558.144     640.767     278.560
  O      558.939     640.794     279.740
  C      557.696     639.342     278.249
  O      558.861     638.529     277.969
  C      556.919     638.675     279.391
  O      555.885     637.871     278.826
  C      557.959     637.780     280.041
  O      557.370     636.661     280.708
  C      558.836     637.389     278.851
  N      561.579     633.845     281.182
  C      560.243     633.859     280.846
  N      559.508     632.783     281.213
  N      559.656     634.847     280.219
  C      560.513     635.853     279.905
  C      561.854     635.964     280.180
  C      562.488     634.866     280.891
  O      563.662     634.802     281.224
  N      562.367     637.152     279.718
  C      561.332     637.770     279.171
  N      560.183     637.025     279.270
  O      559.388     643.334     279.356
  O      557.964     642.498     281.313
  H      556.842     637.020     281.458
  H      557.748     643.446     281.355
  H      561.977     633.068     281.678
  H      561.360     638.735     278.703
  H      558.427     636.536     278.300
  H      558.537     638.355     280.781
  H      559.886     631.977     281.687
  H      556.494     639.394     280.094
  H      558.531     632.759     280.959
  H      557.092     639.361     277.328
  H      558.742     641.157     277.735
  H      557.272     641.414     278.700
  P      554.355     638.252     279.139
  C      552.761     640.214     278.634
  O      554.113     639.769     278.651
  O      553.880     637.934     280.513
  O      553.546     637.404     278.035
  H      552.665     637.183     278.399
  H      552.724     641.228     278.295
  H      552.353     640.152     279.621
  H      552.190     639.596     277.973

 6  7  8  9  10  11  12  13  14  15  26  29  33  34 0
 6-311+G(2d,p)
 ****
 36  38  39  40  41 0
 6-311+G(2d,p)
 ****
 1  2  3  4  5  16  17  18  19  20  21  22  23  24  25 0
 3-21G
 ****
 27  28  30  31  32  35  37  42  43  44  45  46  47 0
 3-21G
 ****
 48  49 0
 3-21G
 ****


