%nproc=1
%NoSave
%Mem=1900MB
#P OB98/GEN NMR

erre ene a

0 1
  C      103.575      17.322     279.625
  O      102.718      16.611     280.525
  P      102.961      16.792     282.099
  C      104.375      14.621     281.878
  O      103.507      15.403     282.682
  C      105.449      13.954     282.743
  O      106.266      14.930     283.422
  C      104.881      13.054     283.832
  O      104.560      11.759     283.334
  C      106.064      12.962     284.783
  O      107.016      11.997     284.290
  C      106.650      14.377     284.708
  N      107.614      16.120     289.359
  C      108.335      15.246     288.568
  N      109.488      14.774     289.088
  N      107.962      14.872     287.374
  C      106.799      15.436     286.974
  C      105.994      16.311     287.664
  C      106.410      16.706     288.992
  O      105.807      17.467     289.744
  N      104.892      16.661     286.934
  C      105.035      16.016     285.791
  N      106.170      15.243     285.773
  O      101.472      16.860     282.683
  O      103.752      18.005     282.461
  H      107.772      12.009     284.908
  H      101.462      17.383     283.505
  H      107.946      16.372     290.274
  H      104.352      16.072     284.954
  H      107.744      14.382     284.757
  H      105.770      12.631     285.783
  H      109.862      15.060     289.984
  H      104.027      13.526     284.334
  H      110.047      14.158     288.510
  H      106.094      13.357     282.086
  H      104.849      15.241     281.112
  H      103.781      13.879     281.332
  P      103.019      11.438     283.026
  C      103.225       9.599     284.847
  O      102.765       9.950     283.559
  O      102.999      11.291     281.434
  O      102.057      12.477     283.498
  H      102.135      11.579     281.084
  H      102.825       8.614     285.103
  H      102.882      10.322     285.593
  H      104.317       9.547     284.854
  H      103.293      17.103     278.616
  H      104.589      17.021     279.785
  H      103.483      18.373     279.801

 3  4  5  6  7  8  9  10  11  12  23  26  30  31 0
 6-311+G(2d,p)
 ****
 33  35  36  37  38 0
 6-311+G(2d,p)
 ****
 1  2  13  14  15  16  17  18  19  20  21  22  24  25 0
 3-21G
 ****
 27  28  29  32  34  39  40  41  42  43  44  45  46  47  48  49 0
 3-21G
 ****


