%nproc=1
%NoSave
%Mem=1900MB
#P OB98/GEN NMR

erre ene a

0 1
  C     -219.253     278.746      91.658
  O     -218.728     280.069      91.685
  P     -217.270     280.302      92.307
  C     -215.164     278.837      91.646
  O     -216.154     279.778      91.291
  C     -213.893     279.106      90.823
  O     -214.183     279.028      89.413
  C     -213.289     280.484      91.079
  O     -212.415     280.480      92.193
  C     -212.598     280.771      89.764
  O     -211.350     280.054      89.685
  C     -213.617     280.194      88.754
  N     -214.726     281.069      88.310
  C     -214.498     282.028      87.323
  O     -213.414     282.219      86.778
  N     -215.586     282.784      86.957
  C     -216.878     282.570      87.337
  O     -217.819     283.240      86.931
  C     -217.085     281.453      88.261
  C     -216.024     280.774      88.706
  O     -217.202     279.262      93.517
  O     -217.009     281.706      92.760
  H     -210.768     280.413      90.377
  H     -217.133     279.734      94.368
  H     -215.425     283.530      86.301
  H     -218.102     281.217      88.551
  H     -216.166     279.942      89.391
  H     -213.106     279.847      87.846
  H     -212.344     281.827      89.672
  H     -214.085     281.227      91.213
  H     -213.154     278.328      91.066
  H     -215.515     277.819      91.469
  H     -214.949     278.917      92.716
  P     -212.997     280.266      93.670
  C     -212.678     278.214      95.180
  O     -213.032     278.671      93.888
  O     -214.263     280.989      93.988
  O     -211.786     280.716      94.620
  H     -211.903     281.650      94.910
  H     -212.895     277.142      95.242
  H     -213.261     278.737      95.942
  H     -211.609     278.366      95.351
  H     -220.227     278.758      91.216
  H     -219.319     278.368      92.657
  H     -218.607     278.118      91.081

 3  4  5  6  7  8  9  10  11  12  13  23  28  29  30  31  32 0
 6-311+G(2d,p)
 ****
 33  34 0
 6-311+G(2d,p)
 ****
 1  2  14  15  16  17  18  19  20  21  22  24  25  26  27 0
 3-21G
 ****
 35  36  37  38  39  40  41  42  43  44  45 0
 3-21G
 ****


