%nproc=1
%NoSave
%Mem=1900MB
#P OB98/GEN NMR

erre ene a

0 1
  C     -375.250    -262.792    -360.213
  O     -374.853    -262.289    -361.478
  H     -375.928    -262.066    -359.747
  H     -374.386    -262.934    -359.562
  H     -375.785    -263.734    -360.335
  P     -373.668    -263.046    -362.251
  C     -372.465    -260.778    -362.538
  O     -372.366    -262.116    -362.057
  C     -371.153    -260.019    -362.317
  O     -370.892    -259.872    -360.902
  C     -369.929    -260.730    -362.880
  O     -369.880    -260.768    -364.290
  C     -368.786    -260.082    -362.106
  O     -368.319    -258.867    -362.694
  C     -369.462    -259.777    -360.740
  N     -368.973    -260.651    -359.684
  C     -367.635    -260.488    -359.336
  O     -366.873    -259.693    -359.892
  N     -367.169    -261.328    -358.352
  C     -367.887    -262.311    -357.739
  O     -367.394    -263.054    -356.892
  C     -369.286    -262.453    -358.165
  C     -369.762    -261.625    -359.103
  O     -373.945    -263.410    -363.680
  O     -373.349    -264.310    -361.318
  H     -367.721    -258.446    -362.047
  H     -372.827    -264.991    -361.809
  H     -366.199    -261.218    -358.083
  H     -369.886    -263.222    -357.693
  H     -370.791    -261.710    -359.435
  H     -369.254    -258.736    -360.450
  H     -367.925    -260.761    -362.024
  H     -369.968    -261.774    -362.554
  H     -371.256    -259.008    -362.750
  H     -373.264    -260.278    -361.980
  H     -372.725    -260.785    -363.604
  P     -368.925    -261.751    -365.116
  C     -367.647    -259.753    -366.177
  O     -367.556    -260.970    -365.441
  O     -369.559    -262.567    -366.190
  O     -368.458    -262.782    -363.952
  H     -368.347    -263.656    -364.364
  H     -366.667    -259.347    -366.318
  H     -368.248    -259.053    -365.636
  H     -368.094    -259.945    -367.130

 6  7  8  9  10  11  12  13  14  15  16  26  31  32  33  34  35 0
 6-311+G(2d,p)
 ****
 36  37 0
 6-311+G(2d,p)
 ****
 1  2  3  4  5  17  18  19  20  21  22  23  24  25 0
 3-21G
 ****
 27  28  29  30  38  39  40  41  42  43  44  45 0
 3-21G
 ****


