%nproc=1
%NoSave
%Mem=1900MB
#P OB98/GEN NMR

erre ene a

0 1
  C      -38.665    -376.067    -423.237
  O      -39.710    -375.830    -422.318
  H      -37.753    -375.589    -422.866
  H      -38.919    -375.630    -424.208
  H      -38.480    -377.140    -423.349
  P      -41.086    -376.619    -422.572
  C      -42.006    -376.870    -420.156
  O      -41.357    -377.496    -421.253
  C      -41.908    -377.751    -418.914
  O      -40.538    -377.818    -418.453
  C      -42.731    -377.259    -417.733
  O      -44.094    -377.659    -417.832
  C      -42.034    -377.978    -416.586
  O      -42.441    -379.363    -416.556
  C      -40.561    -377.865    -416.997
  N      -38.769    -375.614    -412.824
  C      -39.420    -376.825    -412.970
  N      -39.634    -377.534    -411.840
  N      -39.834    -377.298    -414.117
  C      -39.561    -376.477    -415.161
  C      -38.922    -375.257    -415.140
  C      -38.464    -374.750    -413.867
  O      -37.861    -373.695    -413.685
  N      -38.819    -374.725    -416.400
  C      -39.414    -375.614    -417.177
  N      -39.887    -376.692    -416.471
  O      -40.686    -377.717    -423.667
  O      -42.227    -375.780    -423.037
  H      -43.414    -379.367    -416.509
  H      -41.439    -377.846    -424.275
  H      -38.486    -375.292    -411.914
  H      -39.523    -375.520    -418.249
  H      -39.975    -378.739    -416.689
  H      -42.278    -377.555    -415.612
  H      -39.390    -377.206    -410.920
  H      -42.636    -376.175    -417.595
  H      -40.081    -378.438    -411.925
  H      -42.206    -378.770    -419.197
  H      -43.063    -376.713    -420.407
  H      -41.534    -375.902    -419.970
  P      -45.204    -376.500    -417.944
  C      -46.263    -377.738    -419.966
  O      -45.704    -376.526    -419.468
  O      -44.329    -375.158    -417.870
  O      -46.262    -376.537    -416.899
  H      -44.885    -374.414    -417.562
  H      -46.549    -377.605    -420.988
  H      -47.123    -377.999    -419.386
  H      -45.536    -378.520    -419.898

 6  7  8  9  10  11  12  13  14  15  26  29  33  34 0
 6-311+G(2d,p)
 ****
 36  38  39  40  41 0
 6-311+G(2d,p)
 ****
 1  2  3  4  5  16  17  18  19  20  21  22  23  24  25 0
 3-21G
 ****
 27  28  30  31  32  35  37  42  43  44  45  46  47 0
 3-21G
 ****
 48  49 0
 3-21G
 ****


