%nproc=1
%NoSave
%Mem=1900MB
#P OB98/GEN NMR

erre ene a

0 1
  C      -16.458      22.786      73.400
  O      -16.122      23.546      72.233
  P      -16.198      25.143      72.329
  C      -13.975      25.297      73.670
  O      -14.709      25.702      72.524
  C      -12.505      25.702      73.531
  O      -11.844      24.961      72.481
  C      -12.306      27.173      73.191
  O      -12.365      27.994      74.349
  C      -10.890      27.157      72.640
  O       -9.942      27.139      73.726
  C      -10.854      25.829      71.875
  N       -8.820      26.105      67.252
  C       -8.216      25.932      68.481
  N       -6.870      25.805      68.478
  N       -8.870      25.886      69.612
  C      -10.208      26.007      69.461
  C      -10.924      26.185      68.300
  C      -10.188      26.250      67.057
  O      -10.668      26.416      65.940
  N      -12.267      26.275      68.549
  C      -12.370      26.132      69.856
  N      -11.145      25.983      70.459
  O      -16.856      25.383      73.769
  O      -16.996      25.786      71.243
  H      -10.025      26.265      74.154
  H      -17.343      26.227      73.774
  H       -8.268      26.138      66.413
  H      -13.299      26.128      70.409
  H       -9.883      25.327      71.951
  H      -10.665      28.044      72.041
  H       -6.310      25.781      67.641
  H      -13.010      27.500      72.415
  H       -6.412      25.643      69.366
  H      -12.000      25.483      74.481
  H      -14.050      24.215      73.808
  H      -14.431      25.741      74.559
  P      -12.894      29.498      74.174
  C      -14.027      29.811      76.488
  O      -12.937      30.125      75.646
  O      -14.434      29.291      73.793
  O      -12.172      30.296      73.143
  H      -14.733      30.011      73.208
  H      -13.813      30.186      77.491
  H      -14.177      28.730      76.542
  H      -14.937      30.294      76.120
  H      -16.362      21.742      73.186
  H      -17.466      23.000      73.687
  H      -15.797      23.048      74.199

 3  4  5  6  7  8  9  10  11  12  23  26  30  31 0
 6-311+G(2d,p)
 ****
 33  35  36  37  38 0
 6-311+G(2d,p)
 ****
 1  2  13  14  15  16  17  18  19  20  21  22  24  25 0
 3-21G
 ****
 27  28  29  32  34  39  40  41  42  43  44  45  46  47  48  49 0
 3-21G
 ****


