%nproc=1
%NoSave
%Mem=1900MB
#P OB98/GEN NMR

erre ene a

0 1
  C     -147.699     550.066    -755.912
  O     -147.887     550.861    -757.069
  P     -148.727     550.322    -758.337
  C     -146.816     550.791    -760.025
  O     -148.128     551.117    -759.598
  C     -146.268     551.893    -760.943
  O     -147.008     551.851    -762.198
  C     -146.385     553.317    -760.387
  O     -145.237     554.049    -760.830
  C     -147.653     553.829    -761.040
  O     -147.704     555.249    -761.068
  C     -147.556     553.172    -762.422
  N     -148.849     553.104    -763.098
  C     -149.382     554.289    -763.597
  O     -148.795     555.348    -763.440
  N     -150.580     554.244    -764.267
  C     -151.221     553.118    -764.359
  N     -152.374     553.110    -765.092
  C     -150.745     551.854    -763.754
  C     -149.540     551.922    -763.171
  O     -150.205     550.396    -758.181
  O     -148.147     548.845    -758.569
  H     -148.424     555.521    -761.687
  H     -148.601     548.161    -758.016
  H     -151.336     550.953    -763.836
  H     -149.106     551.037    -762.728
  H     -146.818     553.706    -763.050
  H     -148.531     553.469    -760.492
  H     -146.424     553.332    -759.286
  H     -145.218     551.655    -761.180
  H     -152.577     553.940    -765.628
  H     -146.853     549.851    -760.575
  H     -152.757     552.241    -765.468
  H     -146.157     550.646    -759.153
  P     -144.060     554.346    -759.768
  C     -143.454     556.767    -760.473
  O     -143.061     555.420    -760.430
  O     -143.208     552.976    -759.860
  O     -144.472     554.583    -758.359
  H     -142.727     552.855    -759.034
  H     -142.661     557.336    -760.950
  H     -143.622     557.159    -759.477
  H     -144.374     556.873    -761.064
  H     -147.118     550.609    -755.197
  H     -147.187     549.165    -756.178
  H     -148.651     549.823    -755.488

 3  4  5  6  7  8  9  10  11  12  13  23  27  28  29  30  32 0
 6-311+G(2d,p)
 ****
 34  35 0
 6-311+G(2d,p)
 ****
 1  2  14  15  16  17  18  19  20  21  22  24  25  26 0
 3-21G
 ****
 31  33  36  37  38  39  40  41  42  43  44  45  46 0
 3-21G
 ****


