%nproc=1
%NoSave
%Mem=1900MB
#P OB98/GEN NMR

erre ene a

0 1
  C      285.873    -367.289     333.705
  O      286.599    -366.372     332.890
  P      287.186    -366.786     331.448
  C      285.934    -365.051     330.017
  O      287.197    -365.490     330.498
  C      285.961    -363.573     329.602
  O      285.804    -362.721     330.753
  C      287.260    -363.132     328.926
  O      287.285    -363.544     327.575
  C      287.208    -361.624     329.145
  O      286.355    -361.002     328.164
  C      286.578    -361.527     330.538
  N      288.473    -358.262     333.994
  C      287.472    -358.152     333.095
  N      287.020    -359.059     332.213
  C      287.727    -360.207     332.319
  C      288.776    -360.470     333.179
  C      289.156    -359.439     334.045
  N      290.191    -359.542     334.950
  N      289.259    -361.747     332.981
  C      288.499    -362.252     332.029
  N      287.549    -361.362     331.603
  O      286.521    -367.984     330.841
  O      288.741    -367.076     331.705
  H      285.468    -361.395     328.256
  H      289.064    -367.727     331.056
  H      286.945    -357.194     333.096
  H      288.587    -363.254     331.631
  H      285.871    -360.679     330.614
  H      288.189    -361.147     329.070
  H      288.127    -363.547     329.465
  H      285.105    -363.391     328.940
  H      285.191    -365.197     330.803
  H      290.426    -358.745     335.510
  H      290.737    -360.398     334.962
  H      285.658    -365.670     329.149
  P      288.599    -363.311     326.685
  C      289.044    -365.761     326.055
  O      288.636    -364.483     325.592
  O      289.867    -363.107     327.451
  O      288.237    -362.018     325.806
  H      289.060    -361.534     325.606
  H      290.133    -365.788     326.129
  H      288.712    -366.507     325.331
  H      288.599    -365.978     327.027
  H      285.580    -366.805     334.613
  H      286.493    -368.131     333.934
  H      285.001    -367.620     333.180

 3  4  5  6  7  8  9  10  11  12  22  25  29  30  31  32 0
 6-311+G(2d,p)
 ****
 33  36  37 0
 6-311+G(2d,p)
 ****
 1  2  13  14  15  16  17  18  19  20  21  23  24  26 0
 3-21G
 ****
 27  28  34  35  38  39  40  41  42  43  44  45  46  47  48 0
 3-21G
 ****


