%nproc=1
%NoSave
%Mem=1900MB
#P OB98/GEN NMR

erre ene a

0 1
  C       -4.378      21.679      20.806
  O       -4.107      22.596      21.847
  P       -5.163      23.730      22.247
  C       -3.983      25.728      21.161
  O       -4.376      25.119      22.383
  C       -2.625      26.418      21.294
  O       -2.275      27.039      20.029
  C       -2.577      27.504      22.379
  O       -1.288      27.425      22.998
  C       -2.711      28.788      21.584
  O       -2.203      29.915      22.286
  C       -1.949      28.415      20.308
  N       -2.284      29.278      19.187
  C       -1.657      30.525      19.140
  O       -0.964      30.906      20.085
  N       -1.846      31.312      18.030
  C       -2.729      30.968      17.145
  N       -2.836      31.739      16.029
  C       -3.592      29.777      17.293
  C       -3.289      28.963      18.301
  O       -6.037      23.396      23.410
  O       -6.037      23.940      20.920
  H       -6.984      23.848      21.142
  H       -2.168      30.681      21.674
  H       -4.397      29.599      16.597
  H       -3.845      28.050      18.478
  H       -0.865      28.462      20.478
  H       -3.767      28.974      21.360
  H       -3.353      27.377      23.139
  H       -1.871      25.649      21.498
  H       -2.202      32.523      15.944
  H       -4.736      26.473      20.894
  H       -3.249      31.387      15.166
  H       -3.957      24.977      20.362
  P       -1.218      27.129      24.576
  C       -1.661      29.528      25.463
  O       -0.737      28.471      25.308
  O        0.097      26.208      24.672
  O       -2.384      26.411      25.174
  H        0.034      25.648      25.468
  H       -1.147      30.377      25.917
  H       -2.481      29.223      26.121
  H       -2.060      29.837      24.493
  H       -3.552      21.008      20.698
  H       -4.527      22.212      19.890
  H       -5.261      21.122      21.042

 3  4  5  6  7  8  9  10  11  12  13  24  27  28  29  30  32 0
 6-311+G(2d,p)
 ****
 34  35 0
 6-311+G(2d,p)
 ****
 1  2  14  15  16  17  18  19  20  21  22  23  25  26 0
 3-21G
 ****
 31  33  36  37  38  39  40  41  42  43  44  45  46 0
 3-21G
 ****


