%nproc=1
%NoSave
%Mem=1900MB
#P OB98/GEN NMR

erre ene a

0 1
  C      448.072    -679.913      21.356
  O      449.291    -680.626      21.463
  P      449.309    -681.988      22.333
  C      448.424    -683.272      20.232
  O      448.253    -682.964      21.611
  C      447.811    -684.650      19.908
  O      448.620    -685.695      20.529
  C      446.357    -684.826      20.374
  O      445.688    -685.613      19.356
  C      446.519    -685.620      21.658
  O      445.316    -686.333      21.979
  C      447.697    -686.528      21.286
  N      448.363    -687.102      22.451
  C      448.447    -688.492      22.492
  O      447.935    -689.232      21.639
  N      449.113    -689.017      23.575
  C      449.607    -688.319      24.637
  O      450.194    -688.817      25.583
  C      449.379    -686.851      24.597
  C      448.769    -686.339      23.526
  O      448.541    -681.492      23.644
  O      450.674    -682.537      22.537
  H      447.822    -680.857      23.477
  H      444.549    -685.716      21.892
  H      449.220    -690.014      23.601
  H      449.685    -686.269      25.443
  H      448.558    -685.266      23.471
  H      447.378    -687.346      20.627
  H      446.770    -684.954      22.492
  H      445.843    -683.875      20.512
  H      447.860    -684.784      18.813
  H      449.492    -683.296      19.965
  H      447.953    -682.471      19.633
  P      445.234    -684.874      18.012
  C      446.607    -685.989      16.067
  O      446.476    -684.917      16.987
  O      445.228    -683.346      18.504
  O      443.910    -685.310      17.475
  H      446.022    -683.103      18.993
  H      447.360    -685.697      15.321
  H      445.662    -686.154      15.544
  H      446.915    -686.888      16.577
  H      448.220    -679.041      20.753
  H      447.743    -679.620      22.331
  H      447.332    -680.538      20.903

 3  4  5  6  7  8  9  10  11  12  13  24  28  29  30  31  32 0
 6-311+G(2d,p)
 ****
 33  34 0
 6-311+G(2d,p)
 ****
 1  2  14  15  16  17  18  19  20  21  22  23  25  26  27 0
 3-21G
 ****
 35  36  37  38  39  40  41  42  43  44  45 0
 3-21G
 ****


