%nproc=1
%NoSave
%Mem=1900MB
#P OB98/GEN NMR

erre ene a

0 1
  C      148.867    -224.318     -77.571
  O      147.683    -223.758     -77.003
  P      146.960    -224.527     -75.793
  C      145.312    -225.974     -77.135
  O      146.472    -225.967     -76.314
  C      144.603    -227.335     -77.133
  O      143.303    -227.243     -77.777
  C      145.381    -228.455     -77.835
  O      145.126    -229.664     -77.111
  C      144.722    -228.497     -79.202
  O      144.976    -229.714     -79.891
  C      143.263    -228.244     -78.811
  N      142.447    -227.826     -79.940
  C      142.270    -228.740     -80.977
  O      142.878    -229.813     -80.963
  N      141.433    -228.406     -82.014
  C      140.947    -227.205     -82.076
  N      140.106    -226.917     -83.110
  C      141.259    -226.153     -81.089
  C      141.983    -226.539     -80.048
  O      145.924    -223.741     -75.060
  O      148.185    -224.901     -74.829
  H      144.797    -229.583     -80.845
  H      147.878    -224.857     -73.900
  H      140.895    -225.148     -81.231
  H      142.260    -225.844     -79.266
  H      142.813    -229.147     -78.372
  H      145.102    -227.673     -79.820
  H      146.460    -228.279     -77.873
  H      144.424    -227.617     -76.086
  H      139.922    -227.639     -83.792
  H      145.598    -225.721     -78.162
  H      139.645    -226.018     -83.203
  H      144.639    -225.174     -76.805
  P      146.138    -230.096     -75.943
  C      147.922    -231.365     -77.346
  O      147.601    -230.223     -76.580
  O      145.740    -231.637     -75.723
  O      146.017    -229.349     -74.655
  H      145.985    -231.899     -74.816
  H      148.830    -231.161     -77.921
  H      147.116    -231.618     -78.043
  H      148.110    -232.215     -76.681
  H      149.218    -223.686     -78.360
  H      148.649    -225.290     -77.963
  H      149.621    -224.399     -76.816

 3  4  5  6  7  8  9  10  11  12  13  23  27  28  29  30  32 0
 6-311+G(2d,p)
 ****
 34  35 0
 6-311+G(2d,p)
 ****
 1  2  14  15  16  17  18  19  20  21  22  24  25  26 0
 3-21G
 ****
 31  33  36  37  38  39  40  41  42  43  44  45  46 0
 3-21G
 ****


