%nproc=1
%NoSave
%Mem=1900MB
#P OB98/GEN NMR

erre ene a

0 1
  C       27.572     328.361      55.179
  O       26.793     328.486      54.007
  H       28.587     328.062      54.895
  H       27.151     327.594      55.836
  H       27.618     329.318      55.706
  P       25.233     328.808      54.217
  C       23.574     327.544      55.784
  O       24.653     327.458      54.865
  C       23.375     326.202      56.479
  O       24.551     325.847      57.241
  C       22.222     326.179      57.483
  O       20.948     326.071      56.874
  C       22.584     324.922      58.265
  O       22.270     323.762      57.476
  C       24.109     325.105      58.414
  N       24.484     325.812      59.640
  C       24.893     325.022      60.723
  O       24.927     323.797      60.628
  N       25.221     325.641      61.903
  C       25.169     326.936      61.995
  N       25.504     327.489      63.194
  C       24.756     327.804      60.883
  C       24.431     327.189      59.748
  O       24.644     328.766      52.728
  O       24.918     330.057      54.974
  H       22.526     322.986      58.006
  H       23.654     328.807      52.757
  H       24.715     328.879      61.010
  H       24.116     327.762      58.882
  H       24.622     324.135      58.397
  H       22.042     324.827      59.205
  H       22.261     327.039      58.161
  H       23.241     325.440      55.704
  H       25.723     326.861      63.958
  H       22.670     327.820      55.227
  H       25.350     328.466      63.409
  H       23.777     328.317      56.529
  P       19.660     326.286      57.818
  C       18.788     324.978      59.889
  O       19.455     324.924      58.637
  O       18.450     326.277      56.779
  O       19.691     327.534      58.643
  H       17.738     326.884      57.066
  H       18.732     323.994      60.306
  H       17.800     325.364      59.750
  H       19.330     325.617      60.555

 6  7  8  9  10  11  12  13  14  15  16  26  30  31  32  33  35 0
 6-311+G(2d,p)
 ****
 37  38 0
 6-311+G(2d,p)
 ****
 1  2  3  4  5  17  18  19  20  21  22  23  24  25 0
 3-21G
 ****
 27  28  29  34  36  39  40  41  42  43  44  45  46 0
 3-21G
 ****


