%nproc=1
%NoSave
%Mem=1900MB
#P OB98/GEN NMR

erre ene a

0 1
  C     1253.271     641.138    2509.998
  O     1252.738     640.117    2510.824
  P     1251.900     638.858    2510.310
  C     1253.196     637.027    2511.726
  O     1252.850     637.550    2510.459
  C     1254.668     636.623    2511.780
  O     1254.911     635.588    2510.749
  C     1255.646     637.793    2511.451
  O     1256.787     637.827    2512.294
  C     1255.880     637.633    2509.959
  O     1257.056     638.305    2509.501
  C     1255.844     636.115    2509.792
  N     1257.348     635.325    2504.965
  C     1258.035     635.888    2506.006
  N     1259.289     636.366    2505.738
  N     1257.555     636.052    2507.181
  C     1256.278     635.663    2507.306
  C     1255.478     635.019    2506.347
  C     1256.062     634.816    2505.056
  O     1255.508     634.295    2504.094
  N     1254.200     634.731    2506.829
  C     1254.262     635.161    2508.089
  N     1255.457     635.714    2508.437
  O     1251.138     638.989    2509.031
  O     1250.812     638.639    2511.524
  H     1257.185     637.976    2508.558
  H     1250.023     638.250    2511.075
  H     1257.815     635.209    2504.036
  H     1253.407     635.065    2508.779
  H     1256.820     635.664    2509.971
  H     1255.024     638.084    2509.422
  H     1259.705     636.365    2504.791
  H     1255.141     638.748    2511.652
  H     1259.691     637.015    2506.451
  H     1254.900     636.162    2512.780
  H     1252.549     636.186    2511.888
  H     1252.944     637.759    2512.511
  P     1257.313     639.028    2513.266
  C     1257.510     637.701    2515.468
  O     1256.763     638.703    2514.759
  O     1256.390     640.310    2512.851
  O     1258.750     639.341    2513.132
  H     1256.976     640.990    2512.552
  H     1256.903     637.387    2516.340
  H     1258.468     638.108    2515.807
  H     1257.654     636.823    2514.845
  H     1253.785     641.855    2510.604
  H     1252.476     641.622    2509.471
  H     1253.955     640.708    2509.296

 3  4  5  6  7  8  9  10  11  12  23  26  30  31 0
 6-311+G(2d,p)
 ****
 33  35  36  37  38 0
 6-311+G(2d,p)
 ****
 1  2  13  14  15  16  17  18  19  20  21  22  24  25 0
 3-21G
 ****
 27  28  29  32  34  39  40  41  42  43  44  45  46  47  48  49 0
 3-21G
 ****


