%nproc=1
%NoSave
%Mem=1900MB
#P OB98/GEN NMR

erre ene a

0 1
  C     -124.467     -91.380      96.604
  O     -125.643     -91.989      97.097
  H     -123.929     -92.102      95.985
  H     -123.824     -91.081      97.436
  H     -124.715     -90.507      95.995
  P     -126.645     -91.065      97.940
  C     -128.747     -91.975      96.701
  O     -128.063     -91.816      97.936
  C     -128.649     -93.428      96.237
  O     -129.223     -94.282      97.264
  C     -129.410     -93.702      94.935
  O     -128.679     -94.656      94.160
  C     -130.711     -94.320      95.416
  O     -131.358     -95.126      94.441
  C     -130.228     -95.106      96.637
  N     -131.307     -95.411      97.573
  C     -132.239     -96.367      97.187
  O     -132.179     -97.027      96.149
  N     -133.286     -96.556      98.053
  C     -133.496     -95.884      99.221
  O     -134.466     -96.082      99.943
  C     -132.481     -94.881      99.572
  C     -131.451     -94.692      98.745
  O     -126.894     -89.812      96.974
  O     -126.166     -90.659      99.292
  H     -126.237     -89.111      97.149
  H     -130.766     -95.876      94.229
  H     -133.971     -97.248      97.789
  H     -132.621     -94.321     100.487
  H     -130.693     -93.949      98.967
  H     -129.737     -96.037      96.322
  H     -131.410     -93.530      95.717
  H     -129.581     -92.801      94.344
  H     -127.591     -93.702      96.144
  H     -128.287     -91.325      95.950
  H     -129.795     -91.686      96.828
  P     -128.355     -94.274      92.632
  C     -126.671     -96.273      92.589
  O     -127.753     -95.605      91.965
  O     -127.094     -93.312      92.810
  O     -129.520     -93.671      91.923
  H     -126.494     -93.584      93.526
  H     -126.402     -97.133      92.011
  H     -126.961     -96.580      93.572
  H     -125.833     -95.611      92.655

 6  7  8  9  10  11  12  13  14  15  16  27  31  32  33  34  35 0
 6-311+G(2d,p)
 ****
 36  37 0
 6-311+G(2d,p)
 ****
 1  2  3  4  5  17  18  19  20  21  22  23  24  25 0
 3-21G
 ****
 26  28  29  30  38  39  40  41  42  43  44  45 0
 3-21G
 ****


