%nproc=1
%NoSave
%Mem=1900MB
#P OB98/GEN NMR

erre ene a

0 1
  C     -398.251     349.600     492.950
  O     -397.914     350.736     493.730
  P     -398.206     352.216     493.177
  C     -398.984     354.432     494.239
  O     -398.739     353.040     494.448
  C     -399.229     355.144     495.573
  O     -400.504     354.756     496.129
  C     -398.196     354.841     496.645
  O     -396.993     355.550     496.412
  C     -398.941     355.251     497.899
  O     -398.853     356.660     498.120
  C     -400.398     354.838     497.565
  N     -400.787     353.589     498.210
  C     -401.440     353.720     499.438
  O     -401.638     354.830     499.927
  N     -401.837     352.575     500.102
  C     -401.550     351.413     499.600
  N     -401.955     350.318     500.310
  C     -400.828     351.235     498.322
  C     -400.484     352.353     497.699
  O     -399.060     352.290     491.955
  O     -396.737     352.810     492.960
  H     -397.894     356.875     498.124
  H     -396.303     352.427     492.153
  H     -400.620     350.247     497.939
  H     -399.940     352.320     496.751
  H     -401.098     355.616     497.889
  H     -398.546     354.755     498.799
  H     -398.000     353.753     496.679
  H     -399.256     356.229     495.378
  H     -402.421     350.487     501.190
  H     -399.876     354.537     493.609
  H     -401.754     349.374     500.025
  H     -398.131     354.872     493.709
  P     -395.731     355.338     497.364
  C     -393.165     355.362     497.157
  O     -394.410     355.565     496.482
  O     -395.742     354.075     498.174
  O     -395.761     356.626     498.317
  H     -395.591     356.338     499.243
  H     -392.389     355.223     496.392
  H     -393.207     354.495     497.794
  H     -392.937     356.245     497.748
  H     -397.983     348.711     493.481
  H     -397.720     349.635     492.022
  H     -399.304     349.598     492.759

 3  4  5  6  7  8  9  10  11  12  13  23  27  28  29  30  32 0
 6-311+G(2d,p)
 ****
 34  35 0
 6-311+G(2d,p)
 ****
 1  2  14  15  16  17  18  19  20  21  22  24  25  26 0
 3-21G
 ****
 31  33  36  37  38  39  40  41  42  43  44  45  46 0
 3-21G
 ****


