%nproc=1
%NoSave
%Mem=1900MB
#P OB98/GEN NMR

erre ene a

0 1
  C     -853.850      65.047    -139.046
  O     -853.271      66.017    -138.190
  P     -853.969      67.463    -138.127
  C     -854.080      67.873    -135.561
  O     -854.791      67.524    -136.742
  C     -855.011      68.542    -134.547
  O     -855.433      69.831    -135.076
  C     -856.281      67.741    -134.222
  O     -856.582      67.982    -132.843
  C     -857.305      68.396    -135.133
  O     -858.653      68.118    -134.776
  C     -856.879      69.847    -135.025
  N     -859.464      74.131    -136.092
  C     -859.016      73.620    -134.929
  N     -858.328      72.478    -134.721
  C     -858.094      71.840    -135.885
  C     -858.501      72.237    -137.149
  C     -859.220      73.445    -137.232
  N     -859.682      73.959    -138.430
  N     -858.097      71.319    -138.098
  C     -857.460      70.388    -137.422
  N     -857.419      70.673    -136.084
  O     -855.122      67.360    -139.225
  O     -853.051      68.618    -138.380
  H     -859.264      68.702    -135.273
  H     -855.219      68.195    -139.720
  H     -859.242      74.197    -134.037
  H     -857.037      69.490    -137.845
  H     -857.176      70.299    -134.064
  H     -857.163      68.022    -136.155
  H     -856.165      66.658    -134.377
  H     -854.445      68.736    -133.626
  H     -853.284      68.584    -135.809
  H     -860.349      74.712    -138.364
  H     -859.675      73.343    -139.229
  H     -853.615      66.978    -135.140
  P     -857.655      67.046    -132.108
  C     -856.208      66.155    -130.184
  O     -856.768      65.872    -131.449
  O     -858.313      66.285    -133.364
  O     -858.633      67.739    -131.230
  H     -857.629      65.900    -133.940
  H     -855.711      65.253    -129.815
  H     -856.988      66.448    -129.475
  H     -855.458      66.949    -130.271
  H     -853.287      64.139    -138.989
  H     -853.841      65.409    -140.053
  H     -854.859      64.861    -138.743

 3  4  5  6  7  8  9  10  11  12  22  25  29  30  31  32 0
 6-311+G(2d,p)
 ****
 33  36  37 0
 6-311+G(2d,p)
 ****
 1  2  13  14  15  16  17  18  19  20  21  23  24  26 0
 3-21G
 ****
 27  28  34  35  38  39  40  41  42  43  44  45  46  47  48 0
 3-21G
 ****


