%nproc=1
%NoSave
%Mem=1900MB
#P OB98/GEN NMR

erre ene a

0 1
  C      332.022    -287.502     425.390
  O      330.968    -286.953     424.621
  H      332.966    -287.075     425.048
  H      332.054    -288.585     425.262
  H      331.887    -287.260     426.449
  P      329.483    -287.429     425.005
  C      327.591    -288.688     423.720
  O      328.944    -288.244     423.733
  C      327.313    -289.518     422.465
  O      327.274    -288.623     421.314
  C      328.398    -290.573     422.168
  O      327.785    -291.682     421.491
  C      329.298    -289.829     421.197
  O      330.138    -290.735     420.515
  C      328.244    -289.118     420.365
  N      330.905    -287.971     416.165
  C      330.443    -289.149     416.651
  N      329.734    -289.370     417.774
  C      329.483    -288.210     418.408
  C      329.881    -286.939     418.036
  C      330.639    -286.843     416.853
  N      331.125    -285.651     416.368
  N      329.446    -286.001     418.959
  C      328.790    -286.696     419.863
  N      328.778    -288.035     419.572
  O      328.641    -286.067     424.968
  O      329.344    -288.134     426.308
  H      329.618    -291.372     419.993
  H      328.609    -285.670     425.857
  H      330.685    -290.028     416.056
  H      328.313    -286.293     420.748
  H      327.715    -289.799     419.675
  H      329.940    -289.116     421.721
  H      328.914    -290.926     423.070
  H      326.321    -289.978     422.544
  H      326.939    -287.807     423.743
  H      327.400    -289.298     424.611
  H      331.687    -285.672     415.526
  H      330.972    -284.794     416.888
  P      327.743    -293.116     422.222
  C      329.404    -295.013     422.909
  O      329.230    -293.715     422.357
  O      327.094    -294.053     421.094
  O      326.923    -293.176     423.475
  H      326.407    -294.612     421.489
  H      330.446    -295.256     422.927
  H      328.881    -295.729     422.310
  H      329.017    -295.031     423.906

 6  7  8  9  10  11  12  13  14  15  25  28  32  33  34  35 0
 6-311+G(2d,p)
 ****
 36  37  40 0
 6-311+G(2d,p)
 ****
 1  2  3  4  5  16  17  18  19  20  21  22  23  24 0
 3-21G
 ****
 26  27  29  30  31  38  39 41  42  43  44  45  46  47  48 0
 3-21G
 ****


