%nproc=1
%NoSave
%Mem=1900MB
#P OB98/GEN NMR

erre ene a

0 1
  C      -73.457      -1.925     149.994
  O      -73.573      -3.125     149.251
  P      -73.091      -3.129     147.724
  C      -73.743      -1.815     145.577
  O      -73.776      -1.875     146.994
  C      -74.460      -0.558     145.079
  O      -74.002       0.595     145.848
  C      -74.216      -0.245     143.595
  O      -75.415       0.349     143.077
  C      -73.117       0.798     143.657
  O      -73.011       1.571     142.471
  C      -73.560       1.584     144.895
  N      -72.497       2.425     145.445
  C      -72.767       3.783     145.586
  O      -73.835       4.309     145.275
  N      -71.731       4.552     146.045
  C      -70.457       4.124     146.286
  O      -69.545       4.886     146.585
  C      -70.231       2.679     146.120
  C      -71.244       1.909     145.715
  O      -73.852      -4.393     147.102
  O      -71.613      -3.220     147.537
  H      -73.151       0.970     141.717
  H      -73.250      -5.157     147.045
  H      -71.912       5.536     146.164
  H      -69.238       2.302     146.324
  H      -71.101       0.844     145.565
  H      -74.431       2.208     144.655
  H      -72.153       0.303     143.822
  H      -73.939      -1.122     143.002
  H      -75.535      -0.670     145.274
  H      -74.241      -2.697     145.168
  H      -72.702      -1.827     145.232
  P      -75.861      -0.038     141.583
  C      -75.055       0.672     139.199
  O      -74.830       0.681     140.594
  O      -77.203       0.827     141.438
  O      -76.071      -1.504     141.379
  H      -77.109       1.726     141.794
  H      -76.122       0.713     138.964
  H      -74.627      -0.237     138.770
  H      -74.564       1.540     138.754
  H      -73.818      -2.085     150.988
  H      -74.035      -1.157     149.524
  H      -72.430      -1.626     150.031

 3  4  5  6  7  8  9  10  11  12  13  23  28  29  30  31  32 0
 6-311+G(2d,p)
 ****
 33  34 0
 6-311+G(2d,p)
 ****
 1  2  14  15  16  17  18  19  20  21  22  24  25  26 0
 3-21G
 ****
 27  35  36  37  38  39  40  41  42  43  44  45 0
 3-21G
 ****


