%nproc=1
%NoSave
%Mem=1900MB
#P OB98/GEN NMR

erre ene a

0 1
  C     -258.449     -69.030     314.915
  O     -258.236     -70.071     315.875
  P     -257.642     -71.464     315.336
  C     -259.928     -72.741     315.349
  O     -258.860     -72.200     314.588
  C     -260.176     -74.210     314.983
  O     -258.955     -74.983     315.210
  C     -261.307     -74.883     315.774
  O     -261.975     -75.772     314.863
  C     -260.563     -75.674     316.835
  O     -261.350     -76.742     317.349
  C     -259.318     -76.104     316.038
  N     -258.212     -76.517     316.903
  C     -257.188     -77.246     316.315
  O     -257.214     -77.608     315.138
  N     -256.146     -77.582     317.132
  C     -256.064     -77.331     318.470
  O     -255.105     -77.657     319.160
  C     -257.237     -76.658     319.064
  C     -258.234     -76.293     318.267
  O     -257.460     -72.280     316.697
  O     -256.402     -71.289     314.524
  H     -258.161     -72.113     317.352
  H     -260.780     -77.325     317.889
  H     -255.366     -78.080     316.715
  H     -257.233     -76.492     320.139
  H     -259.120     -75.809     318.676
  H     -259.558     -76.942     315.373
  H     -260.283     -75.018     317.664
  H     -262.025     -74.166     316.185
  H     -260.393     -74.251     313.909
  H     -260.846     -72.173     315.162
  H     -259.697     -72.635     316.428
  P     -263.418     -75.334     314.299
  C     -265.245     -76.012     316.058
  O     -264.344     -75.039     315.569
  O     -263.959     -76.764     313.791
  O     -263.396     -74.306     313.217
  H     -263.831     -77.469     314.437
  H     -265.598     -75.713     317.045
  H     -264.757     -76.988     316.141
  H     -266.110     -76.095     315.384
  H     -258.844     -68.166     315.407
  H     -259.143     -69.366     314.173
  H     -257.519     -68.780     314.448

 3  4  5  6  7  8  9  10  11  12  13  24  28  29  30  31  32 0
 6-311+G(2d,p)
 ****
 33  34 0
 6-311+G(2d,p)
 ****
 1  2  14  15  16  17  18  19  20  21  22  23  25  26  27 0
 3-21G
 ****
 35  36  37  38  39  40  41  42  43  44  45 0
 3-21G
 ****


