%nproc=1
%NoSave
%Mem=1900MB
#P OB98/GEN NMR

erre ene a

0 1
  C     -138.719     -23.323      28.594
  O     -137.779     -23.689      29.586
  P     -136.834     -22.599      30.285
  C     -134.809     -23.081      28.772
  O     -135.794     -22.131      29.153
  C     -133.919     -22.544      27.652
  O     -132.728     -23.369      27.535
  C     -134.587     -22.504      26.266
  O     -134.050     -21.361      25.593
  C     -134.088     -23.783      25.627
  O     -134.207     -23.769      24.208
  C     -132.655     -23.841      26.171
  N     -132.083     -25.180      26.081
  C     -131.355     -25.479      24.924
  O     -131.278     -24.653      24.008
  N     -130.774     -26.713      24.808
  C     -130.995     -27.613      25.715
  N     -130.386     -28.823      25.551
  C     -131.858     -27.385      26.892
  C     -132.359     -26.150      27.015
  O     -136.210     -23.031      31.570
  O     -137.780     -21.317      30.434
  H     -133.525     -23.161      23.846
  H     -138.402     -21.431      31.196
  H     -132.061     -28.178      27.591
  H     -133.003     -25.889      27.840
  H     -132.004     -23.147      25.621
  H     -134.671     -24.637      26.001
  H     -135.681     -22.449      26.310
  H     -133.589     -21.535      27.935
  H     -129.789     -28.931      24.741
  H     -135.324     -23.977      28.414
  H     -130.424     -29.558      26.239
  H     -134.208     -23.367      29.642
  P     -134.949     -20.065      25.304
  C     -134.144     -20.036      22.875
  O     -135.268     -20.054      23.737
  O     -134.403     -18.782      25.846
  O     -136.370     -20.415      25.964
  H     -136.891     -19.594      26.066
  H     -134.466     -20.314      21.867
  H     -133.380     -20.747      23.211
  H     -133.716     -19.030      22.851
  H     -139.243     -24.194      28.261
  H     -138.209     -22.876      27.767
  H     -139.416     -22.622      29.004

 3  4  5  6  7  8  9  10  11  12  13  23  27  28  29  30  32 0
 6-311+G(2d,p)
 ****
 34  35 0
 6-311+G(2d,p)
 ****
 1  2  14  15  16  17  18  19  20  21  22  24  25  26 0
 3-21G
 ****
 31  33  36  37  38  39  40  41  42  43  44  45  46 0
 3-21G
 ****


