%nproc=1
%NoSave
%Mem=1900MB
#P OB98/GEN NMR

erre ene a

0 1
  C      201.304    1129.744    -893.409
  O      201.760    1130.976    -893.939
  H      200.244    1129.637    -893.649
  H      201.408    1129.746    -892.319
  H      201.853    1128.921    -893.849
  P      203.279    1131.425    -893.689
  C      203.575    1132.043    -896.179
  O      203.596    1132.527    -894.839
  C      204.598    1132.772    -897.049
  O      204.114    1134.119    -897.319
  C      205.975    1132.886    -896.409
  O      206.994    1132.530    -897.349
  C      206.103    1134.377    -896.069
  O      207.452    1134.823    -895.979
  C      205.264    1134.998    -897.209
  N      204.889    1136.371    -896.929
  C      205.728    1137.358    -897.489
  O      206.690    1137.023    -898.179
  N      205.447    1138.664    -897.219
  C      204.474    1138.986    -896.419
  N      204.288    1140.301    -896.169
  C      203.600    1137.984    -895.799
  C      203.855    1136.699    -896.079
  O      204.258    1130.302    -893.609
  O      203.234    1132.315    -892.359
  H      207.831    1134.841    -896.889
  H      204.136    1132.335    -891.949
  H      202.811    1138.276    -895.119
  H      203.264    1135.887    -895.659
  H      205.808    1134.957    -898.159
  H      205.599    1134.570    -895.109
  H      206.089    1132.273    -895.509
  H      204.651    1132.260    -898.029
  H      204.930    1140.971    -896.619
  H      202.554    1132.167    -896.579
  H      203.586    1140.669    -895.529
  H      203.820    1130.970    -896.169
  P      207.408    1130.984    -897.389
  C      209.147    1131.637    -899.219
  O      208.863    1130.863    -898.049
  O      206.429    1130.374    -898.539
  O      207.217    1130.261    -896.099
  H      205.767    1129.788    -898.129
  H      210.151    1131.448    -899.536
  H      209.034    1132.677    -898.995
  H      208.468    1131.365    -900.000

 6  7  8  9  10  11  12  13  14  15  16  26  30  31  32  33  35 0
 6-311+G(2d,p)
 ****
 37  38 0
 6-311+G(2d,p)
 ****
 1  2  3  4  5  17  18  19  20  21  22  23  24  25 0
 3-21G
 ****
 27  28  29  34  36  39  40  41  42  43  44  45  46 0
 3-21G
 ****


