%nproc=1
%NoSave
%Mem=1900MB
#P OB98/GEN NMR

erre ene a

0 1
  C       -4.782     307.047     994.893
  O       -3.824     307.977     994.397
  P       -4.015     309.522     994.778
  C       -1.750     309.871     996.081
  O       -2.532     310.124     994.920
  C       -0.263     310.025     995.755
  O        0.155     308.976     994.860
  C        0.097     311.326     995.056
  O        0.133     312.422     995.974
  C        1.449     310.969     994.444
  O        2.493     311.066     995.427
  C        1.229     309.496     994.039
  N        0.942     309.331     992.614
  C        2.017     309.422     991.751
  O        3.169     309.638     992.128
  N        1.730     309.282     990.417
  C        0.495     309.127     989.870
  O        0.283     309.046     988.665
  C       -0.621     309.063     990.838
  C       -0.350     309.167     992.144
  O       -4.556     309.392     996.282
  O       -4.919     310.245     993.841
  H       -4.240     308.580     996.706
  H        2.577     312.017     995.641
  H        2.504     309.326     989.766
  H       -1.616     308.941     990.435
  H       -1.158     309.125     992.866
  H        2.112     308.901     994.280
  H        1.717     311.630     993.620
  H       -0.628     311.537     994.260
  H        0.301     309.919     996.691
  H       -1.945     308.845     996.425
  H       -2.051     310.569     996.873
  P        0.002     313.894     995.320
  C       -2.352     314.161     996.428
  O       -1.059     314.683     996.225
  O       -0.784     313.571     993.967
  O        1.322     314.579     995.131
  H       -1.499     312.933     994.090
  H       -2.787     314.618     997.321
  H       -2.331     313.074     996.570
  H       -2.981     314.404     995.557
  H       -4.528     306.062     994.561
  H       -5.754     307.307     994.528
  H       -4.784     307.073     995.963

 3  4  5  6  7  8  9  10  11  12  13  24  28  29  30  31  32 0
 6-311+G(2d,p)
 ****
 33  34 0
 6-311+G(2d,p)
 ****
 1  2  14  15  16  17  18  19  20  21  22  23  25  26  27 0
 3-21G
 ****
 35  36  37  38  39  40  41  42  43  44  45 0
 3-21G
 ****


