%nproc=1
%NoSave
%Mem=1900MB
#P OB98/GEN NMR

erre ene a

0 1
  C       -6.251     188.387    1215.910
  O       -6.447     187.649    1217.112
  P       -7.428     186.385    1217.124
  C       -9.514     187.864    1217.301
  O       -8.766     186.814    1217.889
  C      -11.015     187.603    1217.438
  O      -11.360     186.334    1216.831
  C      -11.488     187.531    1218.894
  O      -11.602     188.803    1219.482
  C      -12.828     186.786    1218.726
  O      -13.873     187.717    1218.340
  C      -12.511     185.811    1217.587
  N      -14.589     181.308    1218.771
  C      -15.158     182.513    1218.478
  N      -14.525     183.673    1218.211
  C      -13.190     183.521    1218.286
  C      -12.475     182.371    1218.586
  C      -13.252     181.212    1218.817
  N      -12.710     179.961    1219.054
  N      -11.125     182.602    1218.597
  C      -11.005     183.910    1218.299
  N      -12.232     184.474    1218.048
  O       -6.821     185.091    1217.561
  O       -7.913     186.264    1215.578
  H      -13.924     188.381    1219.035
  H       -7.642     185.404    1215.227
  H      -16.240     182.537    1218.470
  H      -10.065     184.424    1218.238
  H      -13.340     185.762    1216.864
  H      -13.157     186.300    1219.660
  H      -10.800     186.900    1219.479
  H      -11.571     188.392    1216.887
  H       -9.257     187.941    1216.245
  H      -13.347     179.174    1219.046
  H      -11.734     179.800    1218.798
  H       -9.247     188.818    1217.776
  P      -10.779     189.152    1220.808
  C      -12.135     187.542    1222.308
  O      -11.773     188.907    1222.038
  O      -10.084     190.472    1220.843
  O       -9.738     187.918    1220.956
  H       -8.935     188.248    1221.383
  H      -12.904     187.230    1221.577
  H      -12.540     187.472    1223.300
  H      -11.269     186.894    1222.228
  H       -5.568     189.190    1216.092
  H       -7.188     188.784    1215.578
  H       -5.850     187.742    1215.157

 3  4  5  6  7  8  9  10  11  12  22  25  29  30  31  32 0
 6-311+G(2d,p)
 ****
 33  36  37 0
 6-311+G(2d,p)
 ****
 1  2  13  14  15  16  17  18  19  20  21  23  24  26 0
 3-21G
 ****
 27  28  34  35  38  39  40  41  42  43  44  45  46  47  48 0
 3-21G
 ****


