%nproc=1
%NoSave
%Mem=1900MB
#P OB98/GEN NMR

erre ene a

0 1
  C      -24.881       2.508     -52.318
  O      -25.515       3.360     -53.278
  P      -26.833       4.203     -52.922
  C      -25.917       6.135     -51.501
  O      -26.476       5.763     -52.756
  C      -25.255       7.521     -51.523
  O      -24.064       7.517     -52.355
  C      -26.148       8.656     -52.040
  O      -25.734       9.833     -51.343
  C      -25.750       8.734     -53.503
  O      -26.103       9.962     -54.123
  C      -24.247       8.496     -53.395
  N      -23.373       9.660     -58.304
  C      -23.808      10.409     -57.268
  N      -23.980      10.038     -55.984
  C      -23.611       8.761     -55.799
  C      -23.140       7.877     -56.757
  C      -23.035       8.370     -58.070
  N      -22.637       7.600     -59.138
  N      -22.893       6.637     -56.202
  C      -23.223       6.770     -54.932
  N      -23.659       8.036     -54.638
  O      -27.633       3.641     -51.790
  O      -27.699       4.167     -54.270
  H      -25.611      10.679     -53.683
  H      -28.627       3.962     -54.048
  H      -24.059      11.439     -57.504
  H      -23.186       5.983     -54.190
  H      -23.720       9.408     -53.090
  H      -26.248       7.929     -54.056
  H      -27.216       8.471     -51.897
  H      -24.918       7.740     -50.502
  H      -25.172       5.384     -51.216
  H      -22.683       8.017     -60.055
  H      -22.505       6.608     -59.007
  H      -26.710       6.121     -50.745
  P      -26.730      10.638     -50.381
  C      -25.675      10.366     -48.068
  O      -25.844      11.221     -49.184
  O      -27.940       9.876     -49.951
  O      -27.128      11.946     -51.217
  H      -27.945      12.331     -50.849
  H      -26.588      10.363     -47.466
  H      -24.847      10.736     -47.458
  H      -25.448       9.344     -48.388
  H      -24.025       2.045     -52.763
  H      -25.570       1.754     -52.000
  H      -24.574       3.089     -51.473

 3  4  5  6  7  8  9  10  11  12  22  25  29  30  31  32 0
 6-311+G(2d,p)
 ****
 33  36  37 0
 6-311+G(2d,p)
 ****
 1  2  13  14  15  16  17  18  19  20  21  23  24  26 0
 3-21G
 ****
 27  28  34  35  38  39  40  41  42  43  44  45  46  47  48 0
 3-21G
 ****


