%nproc=1
%NoSave
%Mem=1900MB
#P OB98/GEN NMR

erre ene a

0 1
  C      -37.237     -53.870    -106.090
  O      -37.909     -55.028    -106.541
  H      -36.162     -54.011    -106.227
  H      -37.437     -53.710    -105.025
  H      -37.556     -52.996    -106.664
  P      -39.511     -55.007    -106.464
  C      -40.101     -56.893    -104.772
  O      -39.965     -56.512    -106.136
  C      -41.114     -58.028    -104.652
  O      -42.409     -57.568    -105.099
  C      -40.792     -59.246    -105.511
  O      -39.799     -60.066    -104.918
  C      -42.158     -59.913    -105.601
  O      -42.425     -60.725    -104.449
  C      -43.113     -58.713    -105.627
  N      -46.648     -59.923    -109.094
  C      -46.458     -60.325    -107.818
  N      -45.498     -59.940    -106.952
  C      -44.686     -59.032    -107.521
  C      -44.753     -58.533    -108.811
  C      -45.796     -59.013    -109.620
  N      -45.969     -58.629    -110.927
  N      -43.715     -57.652    -109.041
  C      -43.040     -57.614    -107.912
  N      -43.594     -58.428    -106.965
  O      -39.940     -54.807    -107.995
  O      -40.094     -53.958    -105.578
  H      -42.526     -60.113    -103.694
  H      -40.089     -53.859    -108.171
  H      -47.169     -61.060    -107.447
  H      -42.147     -57.027    -107.733
  H      -43.992     -58.871    -104.993
  H      -42.225     -60.559    -106.478
  H      -40.485     -58.930    -106.516
  H      -41.198     -58.310    -103.593
  H      -40.454     -56.032    -104.191
  H      -39.124     -57.204    -104.390
  H      -46.725     -59.033    -111.455
  H      -45.276     -58.032    -111.359
  P      -39.037     -61.131    -105.839
  C      -39.481     -63.294    -104.469
  O      -38.536     -62.324    -104.891
  O      -37.686     -60.370    -106.236
  O      -39.801     -61.575    -107.040
  H      -37.756     -59.999    -107.135
  H      -38.996     -64.017    -103.847
  H      -39.898     -63.782    -105.325
  H      -40.262     -62.815    -103.916

 6  7  8  9  10  11  12  13  14  15  25  28  32  33  34  35 0
 6-311+G(2d,p)
 ****
 36  37  40 0
 6-311+G(2d,p)
 ****
 1  2  3  4  5  16  17  18  19  20  21  22  23  24 0
 3-21G
 ****
 26  27  29  30  31  38  39 41  42  43  44  45  46  47  48 0
 3-21G
 ****


