%nproc=1
%NoSave
%Mem=1900MB
#P OB98/GEN NMR

erre ene a

0 1
  C      143.827      90.494      44.273
  O      144.802      90.987      45.167
  H      143.052      89.981      44.847
  H      144.280      89.780      43.578
  H      143.369      91.316      43.715
  P      146.033      91.804      44.533
  C      147.573      90.267      45.961
  O      147.245      91.594      45.571
  C      148.021      90.239      47.427
  O      149.392      90.700      47.513
  C      147.169      91.123      48.339
  O      146.903      90.430      49.560
  C      148.044      92.339      48.597
  O      147.730      92.983      49.832
  C      149.454      91.747      48.503
  N      150.447      92.759      48.143
  C      150.561      93.859      48.998
  O      149.841      93.950      49.993
  N      151.454      94.856      48.681
  C      152.125      94.788      47.573
  N      152.974      95.817      47.304
  C      151.997      93.671      46.619
  C      151.154      92.701      46.964
  O      145.604      93.326      44.758
  O      146.358      91.468      43.118
  H      148.429      93.641      50.016
  H      146.165      93.943      44.230
  H      152.566      93.669      45.697
  H      150.996      91.843      46.317
  H      149.748      91.293      49.458
  H      147.893      93.070      47.792
  H      146.223      91.416      47.888
  H      148.022      89.195      47.771
  H      153.026      96.572      47.982
  H      148.382      89.896      45.324
  H      153.521      95.884      46.460
  H      146.693      89.627      45.838
  P      145.471      89.703      49.655
  C      145.061      90.402      52.119
  O      145.218      89.334      51.199
  O      145.720      88.286      48.955
  O      144.368      90.475      49.008
  H      145.394      88.301      48.035
  H      144.901      90.007      53.100
  H      144.220      90.998      51.833
  H      145.944      91.007      52.118

 6  7  8  9  10  11  12  13  14  15  16  26  30  31  32  33  35 0
 6-311+G(2d,p)
 ****
 37  38 0
 6-311+G(2d,p)
 ****
 1  2  3  4  5  17  18  19  20  21  22  23  24  25 0
 3-21G
 ****
 27  28  29  34  36  39  40  41  42  43  44  45  46 0
 3-21G
 ****


