%nproc=1
%NoSave
%Mem=1900MB
#P OB98/GEN NMR

erre ene a

0 1
  C     -130.842      70.721     439.305
  O     -130.518      72.090     439.003
  P     -131.354      72.960     437.950
  C     -131.487      73.195     435.379
  O     -131.161      72.350     436.476
  C     -130.306      73.338     434.404
  O     -129.292      74.200     434.954
  C     -129.595      72.031     434.070
  O     -130.350      71.250     433.161
  C     -128.268      72.553     433.526
  O     -128.393      72.932     432.138
  C     -128.023      73.788     434.409
  N     -127.043      73.542     435.464
  C     -125.705      73.487     435.070
  O     -125.395      73.594     433.887
  N     -124.740      73.292     436.038
  C     -125.096      73.104     437.263
  N     -124.099      72.928     438.186
  C     -126.506      73.057     437.714
  C     -127.422      73.284     436.761
  O     -131.084      74.436     438.032
  O     -132.891      72.660     438.277
  H     -127.510      73.263     431.865
  H     -133.428      73.451     438.062
  H     -126.757      72.868     438.744
  H     -128.475      73.290     437.005
  H     -127.670      74.644     433.796
  H     -127.468      71.813     433.588
  H     -129.408      71.467     434.997
  H     -130.690      73.804     433.481
  H     -123.150      72.970     437.854
  H     -131.746      74.187     435.771
  H     -124.266      72.767     439.168
  H     -132.357      72.786     434.862
  P     -130.815      69.773     433.573
  C     -129.651      67.499     433.885
  O     -129.592      68.777     433.275
  O     -132.143      69.332     433.030
  O     -130.837      69.811     435.181
  H     -131.541      69.210     435.510
  H     -129.014      66.811     433.317
  H     -130.676      67.110     433.906
  H     -129.266      67.575     434.912
  H     -130.153      70.343     440.031
  H     -130.777      70.134     438.413
  H     -131.837      70.668     439.695

 3  4  5  6  7  8  9  10  11  12  13  23  27  28  29  30  32 0
 6-311+G(2d,p)
 ****
 34  35 0
 6-311+G(2d,p)
 ****
 1  2  14  15  16  17  18  19  20  21  22  24  25  26 0
 3-21G
 ****
 31  33  36  37  38  39  40  41  42  43  44  45  46 0
 3-21G
 ****


