%nproc=1
%NoSave
%Mem=1900MB
#P OB98/GEN NMR

erre ene a

0 1
  C      359.659    -541.587    -331.253
  O      358.443    -541.186    -331.852
  H      359.579    -541.453    -330.171
  H      360.480    -540.973    -331.626
  H      359.859    -542.642    -331.463
  P      358.300    -541.411    -333.433
  C      356.694    -543.452    -333.228
  O      357.965    -542.968    -333.637
  C      356.638    -544.969    -333.402
  O      356.723    -545.278    -334.818
  C      357.787    -545.704    -332.700
  O      357.299    -546.943    -332.179
  C      358.766    -545.974    -333.829
  O      359.643    -547.062    -333.579
  C      357.804    -546.218    -334.997
  N      358.445    -546.028    -336.299
  C      358.934    -547.161    -336.942
  O      358.793    -548.313    -336.533
  N      359.606    -546.932    -338.114
  C      359.855    -545.714    -338.676
  O      360.484    -545.573    -339.715
  C      359.325    -544.555    -337.944
  C      358.656    -544.761    -336.807
  O      359.805    -541.291    -333.961
  O      357.369    -540.482    -334.136
  H      360.011    -540.366    -334.198
  H      360.360    -547.030    -334.246
  H      359.963    -547.743    -338.595
  H      359.513    -543.571    -338.353
  H      358.267    -543.929    -336.235
  H      357.379    -547.226    -334.936
  H      359.379    -545.082    -334.012
  H      358.239    -545.117    -331.900
  H      355.665    -545.332    -333.051
  H      355.918    -542.989    -333.848
  H      356.526    -543.183    -332.182
  P      357.759    -547.349    -330.692
  C      355.828    -545.966    -329.601
  O      357.223    -546.180    -329.730
  O      359.335    -547.107    -330.774
  O      357.347    -548.733    -330.315
  H      359.582    -546.337    -331.315
  H      355.653    -545.154    -328.926
  H      355.365    -546.853    -329.221
  H      355.413    -545.729    -330.559

 6  7  8  9  10  11  12  13  14  15  16  27  31  32  33  34  35 0
 6-311+G(2d,p)
 ****
 36  37 0
 6-311+G(2d,p)
 ****
 1  2  3  4  5  17  18  19  20  21  22  23  24  25 0
 3-21G
 ****
 26  28  29  30  38  39  40  41  42  43  44  45 0
 3-21G
 ****


