%nproc=1
%NoSave
%Mem=1900MB
#P OB98/GEN NMR

erre ene a

0 1
  C     -897.520    -314.155    -895.880
  O     -898.580    -314.951    -895.430
  H     -897.440    -313.251    -895.270
  H     -897.680    -313.850    -896.930
  H     -896.560    -314.690    -895.800
  P     -898.650    -316.450    -895.970
  C     -897.700    -317.693    -893.900
  O     -897.470    -317.296    -895.240
  C     -896.770    -318.857    -893.520
  O     -897.310    -320.100    -894.080
  C     -895.330    -318.705    -894.060
  O     -894.410    -319.178    -893.080
  C     -895.310    -319.596    -895.290
  O     -894.000    -320.057    -895.590
  C     -896.260    -320.718    -894.840
  N     -895.040    -323.201    -899.060
  C     -894.240    -322.673    -898.060
  N     -892.910    -322.842    -898.220
  N     -894.700    -322.051    -897.020
  C     -896.040    -321.997    -896.980
  C     -896.940    -322.447    -897.900
  C     -896.440    -323.132    -899.070
  O     -897.090    -323.562    -900.000
  N     -898.240    -322.169    -897.510
  C     -898.130    -321.548    -896.360
  N     -896.800    -321.412    -895.970
  O     -898.120    -316.331    -897.490
  O     -900.000    -317.101    -895.940
  H     -894.070    -320.739    -896.290
  H     -898.830    -316.546    -898.120
  H     -894.630    -323.640    -899.880
  H     -898.940    -321.158    -895.750
  H     -895.770    -321.453    -894.210
  H     -895.700    -319.073    -896.150
  H     -892.490    -323.351    -898.980
  H     -895.100    -317.647    -894.300
  H     -892.300    -322.515    -897.470
  H     -896.770    -318.967    -892.420
  H     -898.750    -318.034    -893.810
  H     -897.530    -316.836    -893.210
  P     -894.100    -318.204    -891.840
  C     -894.630    -319.755    -889.840
  O     -895.020    -318.616    -890.580
  O     -894.720    -316.767    -892.310
  O     -892.640    -318.065    -891.530
  H     -893.990    -316.177    -892.550
  H     -895.322    -319.914    -889.039
  H     -893.650    -319.602    -889.440
  H     -894.624    -320.612    -890.481

 6  7  8  9  10  11  12  13  14  15  26  29  33  34 0
 6-311+G(2d,p)
 ****
 36  38  39  40  41 0
 6-311+G(2d,p)
 ****
 1  2  3  4  5  16  17  18  19  20  21  22  23  24  25 0
 3-21G
 ****
 27  28  30  31  32  35  37  42  43  44  45  46  47 0
 3-21G
 ****
 48  49 0
 3-21G
 ****


