%nproc=1
%NoSave
%Mem=1900MB
#P OB98/GEN NMR

erre ene a

0 1
  C      551.079    -255.797    -545.984
  O      550.874    -254.468    -545.532
  H      552.136    -255.923    -546.219
  H      550.493    -255.973    -546.891
  H      550.797    -256.509    -545.206
  P      549.412    -254.123    -544.960
  C      548.495    -253.249    -547.266
  O      548.424    -254.210    -546.221
  C      547.368    -253.468    -548.271
  O      546.103    -253.529    -547.551
  C      547.253    -252.364    -549.323
  O      546.881    -252.956    -550.571
  C      546.120    -251.488    -548.808
  O      545.501    -250.738    -549.855
  C      545.222    -252.532    -548.116
  N      544.377    -251.928    -547.089
  C      543.010    -251.826    -547.383
  O      542.577    -252.194    -548.477
  N      542.175    -251.249    -546.455
  C      542.663    -250.766    -545.358
  N      541.793    -250.198    -544.490
  C      544.107    -250.811    -545.023
  C      544.891    -251.412    -545.920
  O      549.538    -252.551    -544.684
  O      549.007    -254.935    -543.770
  H      544.789    -250.191    -549.453
  H      550.011    -252.071    -545.379
  H      544.470    -250.381    -544.105
  H      545.963    -251.495    -545.754
  H      544.581    -253.030    -548.850
  H      546.510    -250.779    -548.072
  H      548.169    -251.793    -549.448
  H      547.501    -254.449    -548.742
  H      540.810    -250.168    -544.757
  H      549.459    -253.318    -547.779
  H      542.070    -249.740    -543.628
  H      548.416    -252.258    -546.813
  P      548.017    -253.267    -551.657
  C      547.324    -251.773    -553.642
  O      548.244    -251.968    -552.574
  O      547.856    -254.543    -552.411
  O      549.358    -253.300    -550.772
  H      549.934    -254.016    -551.120
  H      547.580    -250.881    -554.175
  H      546.334    -251.681    -553.247
  H      547.367    -252.610    -554.307

 6  7  8  9  10  11  12  13  14  15  16  26  30  31  32  33  35 0
 6-311+G(2d,p)
 ****
 37  38 0
 6-311+G(2d,p)
 ****
 1  2  3  4  5  17  18  19  20  21  22  23  24  25 0
 3-21G
 ****
 27  28  29  34  36  39  40  41  42  43  44  45  46 0
 3-21G
 ****


