%nproc=1
%NoSave
%Mem=1900MB
#P OB98/GEN NMR

erre ene a

0 1
  C     -264.919     640.263     147.274
  O     -266.239     640.647     147.681
  P     -267.019     639.974     148.914
  C     -269.335     640.360     147.827
  O     -268.503     640.582     148.959
  C     -270.726     640.959     148.048
  O     -271.345     640.380     149.220
  C     -270.751     642.457     148.313
  O     -270.499     643.218     147.148
  C     -272.158     642.634     148.885
  O     -273.135     642.767     147.844
  C     -272.374     641.304     149.641
  N     -272.372     641.467     151.086
  C     -273.477     642.114     151.642
  O     -274.351     642.588     150.921
  N     -273.554     642.219     153.011
  C     -272.566     641.814     153.748
  N     -272.710     641.928     155.098
  C     -271.322     641.251     153.188
  C     -271.292     641.107     151.868
  O     -266.289     640.070     150.215
  O     -267.239     638.446     148.488
  H     -267.313     637.893     149.290
  H     -272.857     643.527     147.291
  H     -270.506     640.963     153.834
  H     -270.424     640.684     151.371
  H     -273.319     640.844     149.332
  H     -272.238     643.523     149.518
  H     -270.010     642.698     149.083
  H     -271.343     640.716     147.171
  H     -273.578     642.312     155.442
  H     -269.437     639.276     147.680
  H     -272.010     641.625     155.757
  H     -268.860     640.784     146.938
  P     -269.083     643.967     147.058
  C     -270.220     645.985     145.883
  O     -269.171     645.036     145.868
  O     -268.097     642.841     146.489
  O     -268.592     644.517     148.361
  H     -267.230     642.913     146.934
  H     -269.891     646.883     145.355
  H     -270.499     646.263     146.904
  H     -271.092     645.574     145.373
  H     -264.619     640.854     146.434
  H     -264.917     639.228     147.002
  H     -264.236     640.421     148.083

 3  4  5  6  7  8  9  10  11  12  13  24  27  28  29  30  32 0
 6-311+G(2d,p)
 ****
 34  35 0
 6-311+G(2d,p)
 ****
 1  2  14  15  16  17  18  19  20  21  22  23  25  26 0
 3-21G
 ****
 31  33  36  37  38  39  40  41  42  43  44  45  46 0
 3-21G
 ****


