%nproc=1
%NoSave
%Mem=1900MB
#P OB98/GEN NMR

erre ene a

0 1
  C      275.303      62.660    -210.643
  O      275.428      64.063    -210.763
  P      276.825      64.832    -210.665
  C      277.223      64.495    -213.207
  O      277.746      64.360    -211.895
  C      278.139      65.303    -214.138
  O      279.317      64.527    -214.444
  C      277.435      65.569    -215.471
  O      276.539      66.652    -215.603
  C      278.543      65.523    -216.520
  O      279.007      66.824    -216.884
  C      279.656      64.731    -215.825
  N      280.794      62.240    -220.095
  C      280.886      63.593    -219.822
  N      281.135      64.393    -220.888
  N      280.730      64.105    -218.634
  C      280.390      63.191    -217.690
  C      280.283      61.830    -217.836
  C      280.498      61.270    -219.149
  O      280.343      60.087    -219.447
  N      279.849      61.225    -216.684
  C      279.658      62.227    -215.847
  N      279.935      63.441    -216.427
  O      277.439      64.939    -209.307
  O      276.399      66.320    -211.117
  H      279.760      66.715    -217.495
  H      276.949      66.951    -210.612
  H      280.846      61.912    -221.050
  H      279.288      62.130    -214.833
  H      280.596      65.299    -215.836
  H      278.184      65.055    -217.442
  H      281.116      64.048    -221.836
  H      276.815      64.687    -215.682
  H      281.043      65.392    -220.757
  H      278.500      66.206    -213.643
  H      276.240      64.971    -213.125
  H      277.063      63.503    -213.642
  P      274.991      66.564    -215.988
  C      274.214      67.235    -213.643
  O      274.156      66.246    -214.658
  O      274.866      65.199    -216.820
  O      274.472      67.713    -216.794
  H      274.069      65.230    -217.381
  H      273.884      66.797    -212.699
  H      273.551      68.066    -213.902
  H      275.236      67.614    -213.521
  H      274.274      62.384    -210.743
  H      275.664      62.350    -209.684
  H      275.877      62.184    -211.411

 3  4  5  6  7  8  9  10  11  12  23  26  30  31 0
 6-311+G(2d,p)
 ****
 33  35  36  37  38 0
 6-311+G(2d,p)
 ****
 1  2  13  14  15  16  17  18  19  20  21  22  24  25 0
 3-21G
 ****
 27  28  29  32  34  39  40  41  42  43  44  45  46  47  48  49 0
 3-21G
 ****


