%nproc=1
%NoSave
%Mem=1900MB
#P OB98/GEN NMR

erre ene a

0 1
  C      -58.425      28.033      -6.320
  O      -59.273      28.337      -5.208
  P      -60.822      28.707      -5.402
  C      -61.363      28.497      -2.901
  O      -61.427      29.336      -4.050
  C      -60.178      28.819      -1.981
  O      -60.111      30.244      -1.697
  C      -60.197      28.101      -0.624
  O      -58.827      27.900      -0.263
  C      -60.839      29.142       0.278
  O      -60.602      28.919       1.660
  C      -60.203      30.416      -0.268
  N      -60.297      34.700       2.536
  C      -59.311      33.811       2.288
  N      -59.350      32.716       1.501
  C      -60.550      32.597       0.904
  C      -61.647      33.430       1.054
  C      -61.493      34.521       1.928
  N      -62.508      35.403       2.222
  N      -62.715      32.971       0.306
  C      -62.268      31.875      -0.275
  N      -60.963      31.608       0.053
  O      -61.649      27.601      -5.977
  O      -60.806      29.953      -6.409
  H      -59.649      28.759       1.786
  H      -61.482      29.814      -7.101
  H      -58.366      33.999       2.792
  H      -62.848      31.229      -0.921
  H      -59.185      30.551       0.117
  H      -61.925      29.132       0.124
  H      -60.742      27.154      -0.638
  H      -59.261      28.568      -2.528
  H      -61.290      27.456      -3.235
  H      -62.330      36.097       2.931
  H      -63.439      35.215       1.880
  H      -62.302      28.600      -2.340
  P      -58.370      26.666       0.650
  C      -56.119      25.970      -0.345
  O      -56.772      26.689       0.686
  O      -58.969      25.351       0.276
  O      -58.779      27.094       2.141
  H      -58.817      26.302       2.706
  H      -56.166      24.897      -0.132
  H      -55.072      26.280      -0.390
  H      -56.587      26.166      -1.316
  H      -57.438      27.816      -5.967
  H      -58.391      28.873      -6.982
  H      -58.812      27.183      -6.842

 3  4  5  6  7  8  9  10  11  12  22  25  29  30  31  32 0
 6-311+G(2d,p)
 ****
 33  36  37 0
 6-311+G(2d,p)
 ****
 1  2  13  14  15  16  17  18  19  20  21  23  24  26 0
 3-21G
 ****
 27  28  34  35  38  39  40  41  42  43  44  45  46  47  48 0
 3-21G
 ****


