%nproc=1
%NoSave
%Mem=1900MB
#P OB98/GEN NMR

erre ene a

0 1
  C      -97.351     956.588      19.345
  O      -98.217     957.569      19.906
  P      -98.037     959.088      19.407
  C      -98.393     960.593      21.500
  O      -98.987     959.969      20.361
  C      -99.451     960.990      22.510
  O     -100.385     961.914      21.903
  C     -100.305     959.841      23.034
  O      -99.643     959.116      24.061
  C     -101.516     960.589      23.570
  O     -101.225     961.096      24.886
  C     -101.665     961.743      22.575
  N     -106.606     962.088      21.503
  C     -105.920     962.440      22.650
  N     -106.655     962.983      23.650
  N     -104.629     962.261      22.810
  C     -104.021     961.761      21.721
  C     -104.586     961.369      20.515
  C     -106.025     961.510      20.378
  O     -106.690     961.172      19.409
  N     -103.644     960.915      19.641
  C     -102.498     961.054      20.287
  N     -102.680     961.527      21.562
  O      -98.798     959.101      18.008
  O      -96.624     959.553      19.276
  H     -102.074     961.331      25.301
  H      -98.445     959.813      17.437
  H     -107.589     962.264      21.427
  H     -101.527     960.808      19.868
  H     -101.874     962.688      23.079
  H     -102.405     959.952      23.658
  H     -107.615     963.250      23.535
  H     -100.616     959.179      22.212
  H     -106.162     963.277      24.488
  H      -98.953     961.516      23.339
  H      -97.850     961.495      21.170
  H      -97.674     959.901      21.947
  P      -98.619     957.965      23.590
  C      -99.049     955.959      25.200
  O      -98.288     957.136      24.907
  O      -97.277     958.773      23.284
  O      -99.090     957.175      22.407
  H      -96.736     958.288      22.622
  H      -99.286     955.423      24.274
  H      -99.957     956.243      25.716
  H      -98.450     955.312      25.835
  H      -97.579     955.630      19.763
  H      -96.335     956.841      19.566
  H      -97.488     956.556      18.284

 3  4  5  6  7  8  9  10  11  12  23  26  30  31  33  0
 6-311+G(2d,p)
 ****
 35  36  37  38 0
 6-311+G(2d,p)
 ****
 1  2  13  14  15  16  17  18  19  20  21  22  24  25  27  28  29 0
 3-21G
 ****
 32  34  39  40  41  42  43  44  45  46  47  48  49 0
 3-21G
 ****


