%nproc=1
%NoSave
%Mem=1900MB
#P OB98/GEN NMR

erre ene a

0 1
  C      -52.182     312.036    -114.296
  O      -51.328     312.848    -115.080
  H      -53.206     312.153    -114.660
  H      -52.140     312.354    -113.251
  H      -51.893     310.985    -114.380
  P      -49.750     312.688    -114.828
  C      -48.108     313.654    -113.018
  O      -49.431     313.562    -113.522
  C      -48.024     314.711    -111.917
  O      -48.057     316.025    -112.531
  C      -49.169     314.639    -110.906
  O      -48.657     314.990    -109.618
  C      -50.122     315.725    -111.379
  O      -50.972     316.188    -110.332
  C      -49.138     316.769    -111.931
  N      -49.767     317.675    -112.889
  C      -50.513     318.730    -112.359
  O      -50.629     318.857    -111.140
  N      -51.145     319.593    -113.217
  C      -51.092     319.384    -114.495
  N      -51.761     320.260    -115.292
  C      -50.354     318.256    -115.098
  C      -49.713     317.456    -114.247
  O      -49.137     313.555    -116.025
  O      -49.272     311.275    -114.782
  H      -50.412     316.449    -109.568
  H      -49.586     314.408    -116.154
  H      -50.348     318.116    -116.169
  H      -49.139     316.609    -114.603
  H      -48.716     317.369    -111.114
  H      -50.760     315.341    -112.183
  H      -49.636     313.653    -110.863
  H      -47.051     314.618    -111.419
  H      -52.274     321.005    -114.836
  H      -47.412     313.910    -113.823
  H      -51.835     320.163    -116.294
  H      -47.828     312.671    -112.625
  P      -48.045     313.848    -108.677
  C      -48.832     312.462    -106.640
  O      -49.215     313.203    -107.793
  O      -46.813     314.225    -107.924
  O      -47.717     312.671    -109.720
  H      -46.858     312.280    -109.470
  H      -49.707     312.091    -106.148
  H      -48.289     313.097    -105.972
  H      -48.212     311.640    -106.934

 6  7  8  9  10  11  12  13  14  15  16  26  30  31  32  33  35 0
 6-311+G(2d,p)
 ****
 37  38 0
 6-311+G(2d,p)
 ****
 1  2  3  4  5  17  18  19  20  21  22  23  24  25 0
 3-21G
 ****
 27  28  29  34  36  39  40  41  42  43  44  45  46 0
 3-21G
 ****


