%nproc=1
%NoSave
%Mem=1900MB
#P OB98/GEN NMR

erre ene a

0 1
  C      108.225     -16.207     -43.383
  O      108.824     -17.481     -43.410
  P      109.004     -18.349     -44.734
  C      106.987     -19.828     -43.974
  O      107.632     -19.123     -45.028
  C      105.576     -20.270     -44.390
  O      104.837     -19.101     -44.827
  C      105.618     -21.244     -45.579
  O      104.707     -22.330     -45.472
  C      105.464     -20.320     -46.780
  O      105.026     -20.983     -47.955
  C      104.528     -19.249     -46.229
  N      103.009     -16.301     -50.077
  C      102.476     -17.495     -49.634
  N      101.539     -18.057     -50.428
  N      102.857     -18.092     -48.535
  C      103.880     -17.468     -47.907
  C      104.488     -16.282     -48.250
  C      104.035     -15.616     -49.448
  O      104.555     -14.616     -49.939
  N      105.536     -15.989     -47.419
  C      105.588     -17.013     -46.592
  N      104.623     -17.954     -46.871
  O      110.283     -19.110     -44.868
  O      108.995     -17.206     -45.876
  H      105.061     -20.340     -48.687
  H      109.599     -17.504     -46.584
  H      102.728     -15.929     -50.977
  H      106.316     -17.140     -45.799
  H      103.483     -19.550     -46.312
  H      106.451     -19.901     -47.001
  H      101.334     -17.697     -51.348
  H      106.594     -21.738     -45.635
  H      101.319     -19.036     -50.260
  H      105.059     -20.689     -43.521
  H      106.929     -19.133     -43.129
  H      107.585     -20.687     -43.663
  P      104.921     -23.860     -45.871
  C      103.628     -23.475     -48.052
  O      104.804     -23.995     -47.462
  O      103.608     -24.612     -45.354
  O      106.141     -24.491     -45.285
  H      103.853     -25.481     -44.984
  H      103.543     -23.867     -49.069
  H      103.690     -22.385     -48.096
  H      102.742     -23.772     -47.481
  H      108.224     -15.835     -42.380
  H      107.218     -16.279     -43.738
  H      108.778     -15.540     -44.011

 3  4  5  6  7  8  9  10  11  12  23  26  30  31 0
 6-311+G(2d,p)
 ****
 33  35  36  37  38 0
 6-311+G(2d,p)
 ****
 1  2  13  14  15  16  17  18  19  20  21  22  24  25 0
 3-21G
 ****
 27  28  29  32  34  39  40  41  42  43  44  45  46  47  48  49 0
 3-21G
 ****


