%nproc=1
%NoSave
%Mem=1900MB
#P OB98/GEN NMR

erre ene a

0 1
  C     -320.749     113.070     -16.806
  O     -320.811     113.644     -15.506
  P     -322.245     113.747     -14.791
  C     -323.859     115.709     -14.283
  O     -322.829     115.207     -15.117
  C     -324.260     117.126     -14.692
  O     -323.154     118.029     -14.415
  C     -324.615     117.285     -16.173
  O     -325.631     118.293     -16.260
  C     -323.332     117.822     -16.779
  O     -323.553     118.482     -18.019
  C     -322.854     118.724     -15.644
  N     -319.198     121.138     -18.287
  C     -320.537     121.083     -18.448
  N     -321.445     120.420     -17.703
  C     -320.844     119.760     -16.699
  C     -319.487     119.694     -16.428
  C     -318.639     120.430     -17.274
  N     -317.276     120.497     -17.106
  N     -319.250     118.894     -15.330
  C     -320.440     118.483     -14.944
  N     -321.436     119.000     -15.726
  O     -321.857     113.839     -13.241
  O     -323.168     112.607     -15.055
  H     -322.686     118.637     -18.445
  H     -322.132     113.023     -12.781
  H     -320.932     121.653     -19.283
  H     -320.636     117.816     -14.116
  H     -323.384     119.685     -15.626
  H     -322.632     116.997     -16.952
  H     -324.953     116.361     -16.652
  H     -325.098     117.444     -14.059
  H     -323.494     115.733     -13.251
  H     -316.756     121.154     -17.663
  H     -316.875     120.131     -16.249
  H     -324.727     115.044     -14.328
  P     -326.610     118.228     -17.528
  C     -326.700     119.418     -19.833
  O     -325.946     119.136     -18.669
  O     -327.882     119.080     -17.058
  O     -326.995     116.846     -17.936
  H     -328.681     118.771     -17.519
  H     -326.435     120.417     -20.190
  H     -327.779     119.385     -19.638
  H     -326.453     118.687     -20.606
  H     -319.735     113.071     -17.148
  H     -321.353     113.643     -17.478
  H     -321.113     112.064     -16.770

 3  4  5  6  7  8  9  10  11  12  22  25  29  30  31  32 0
 6-311+G(2d,p)
 ****
 33  36  37 0
 6-311+G(2d,p)
 ****
 1  2  13  14  15  16  17  18  19  20  21  23  24  26 0
 3-21G
 ****
 27  28  34  35  38  39  40  41  42  43  44  45  46  47  48 0
 3-21G
 ****


