%nproc=1
%NoSave
%Mem=1900MB
#P OB98/GEN NMR

erre ene a

0 1
  C       59.244    -502.743    -285.074
  O       58.483    -501.781    -285.770
  H       59.166    -502.545    -284.001
  H       60.296    -502.666    -285.364
  H       58.881    -503.758    -285.270
  P       58.190    -502.000    -287.335
  C       58.373    -499.441    -287.658
  O       57.593    -500.609    -287.873
  C       57.509    -498.335    -287.049
  O       56.265    -498.261    -287.806
  C       57.142    -498.582    -285.575
  O       57.072    -497.314    -284.905
  C       55.758    -499.184    -285.702
  O       55.030    -499.088    -284.496
  C       55.186    -498.364    -286.858
  N       53.992    -498.989    -287.419
  C       52.883    -498.180    -287.598
  O       52.850    -496.979    -287.301
  N       51.752    -498.790    -288.069
  C       51.601    -500.137    -288.266
  O       50.547    -500.651    -288.604
  C       52.798    -500.961    -288.004
  C       53.920    -500.359    -287.600
  O       57.387    -503.207    -287.690
  O       59.645    -502.016    -288.008
  H       54.117    -499.406    -284.631
  H       59.617    -502.466    -288.878
  H       50.943    -498.215    -288.218
  H       52.713    -502.031    -288.135
  H       54.818    -500.932    -287.393
  H       54.935    -497.349    -286.527
  H       55.825    -500.240    -285.965
  H       57.860    -499.237    -285.058
  H       58.018    -497.371    -287.179
  H       58.768    -499.120    -288.631
  H       59.213    -499.676    -286.995
  P       58.335    -496.701    -284.120
  C       57.236    -495.300    -282.272
  O       57.969    -495.266    -283.494
  O       59.607    -496.712    -284.912
  O       58.498    -497.641    -282.833
  H       59.434    -497.870    -282.714
  H       57.045    -494.300    -281.943
  H       57.806    -495.818    -281.529
  H       56.307    -495.808    -282.427

 6  7  8  9  10  11  12  13  14  15  16  26  31  32  33  34  35 0
 6-311+G(2d,p)
 ****
 36  37 0
 6-311+G(2d,p)
 ****
 1  2  3  4  5  17  18  19  20  21  22  23  24  25 0
 3-21G
 ****
 27  28  29  30  38  39  40  41  42  43  44  45 0
 3-21G
 ****


