%nproc=1
%NoSave
%Mem=1900MB
#P OB98/GEN NMR

erre ene a

0 1
  C      -98.933     137.695     223.391
  O      -99.982     136.794     223.682
  P     -100.422     136.476     225.190
  C     -102.817     137.255     224.670
  O     -101.673     137.437     225.491
  C     -104.088     137.110     225.510
  O     -104.310     138.331     226.268
  C     -105.360     136.830     224.699
  O     -106.181     135.988     225.514
  C     -105.977     138.210     224.572
  O     -107.362     138.165     224.247
  C     -105.636     138.805     225.944
  N     -105.715     140.262     225.945
  C     -106.979     140.821     226.149
  O     -107.972     140.097     226.241
  N     -107.100     142.188     226.191
  C     -106.065     142.927     225.941
  N     -106.242     144.276     226.001
  C     -104.740     142.377     225.596
  C     -104.635     141.050     225.631
  O      -99.325     136.539     226.198
  O     -101.111     135.037     225.085
  H     -107.724     139.074     224.321
  H     -100.421     134.330     225.014
  H     -103.922     143.033     225.340
  H     -103.704     140.555     225.393
  H     -106.319     138.421     226.713
  H     -105.467     138.771     223.779
  H     -105.170     136.365     223.729
  H     -103.922     136.304     226.235
  H     -107.162     144.611     226.256
  H     -102.675     136.339     224.090
  H     -105.487     144.937     225.906
  H     -102.910     138.086     223.964
  P     -107.293     135.032     224.870
  C     -105.911     133.519     223.337
  O     -106.782     134.635     223.407
  O     -108.689     135.563     224.924
  O     -107.159     133.659     225.689
  H     -107.956     133.116     225.541
  H     -105.856     133.175     222.301
  H     -106.272     132.700     223.966
  H     -104.910     133.816     223.667
  H      -98.804     137.762     222.331
  H      -98.027     137.344     223.839
  H      -99.174     138.661     223.782

 3  4  5  6  7  8  9  10  11  12  13  23  27  28  29  30  32 0
 6-311+G(2d,p)
 ****
 34  35 0
 6-311+G(2d,p)
 ****
 1  2  14  15  16  17  18  19  20  21  22  24  25  26 0
 3-21G
 ****
 31  33  36  37  38  39  40  41  42  43  44  45  46 0
 3-21G
 ****


