%nproc=1
%NoSave
%Mem=1900MB
#P OB98/GEN NMR

erre ene a

0 1
  C      100.828    -128.833    -255.610
  O      101.456    -128.460    -256.839
  P      100.859    -127.337    -257.817
  C      100.342    -124.881    -257.211
  O      101.341    -125.889    -257.324
  C      100.875    -123.506    -257.620
  O      101.896    -123.064    -256.705
  C      101.518    -123.454    -259.001
  O      100.541    -123.461    -260.024
  C      102.329    -122.168    -258.898
  O      101.507    -121.016    -259.155
  C      102.793    -122.197    -257.429
  N      104.178    -122.626    -257.289
  C      105.160    -121.698    -257.655
  O      104.845    -120.607    -258.125
  N      106.480    -122.045    -257.504
  C      106.791    -123.235    -257.091
  N      108.116    -123.523    -256.954
  C      105.789    -124.275    -256.781
  C      104.519    -123.900    -256.901
  O       99.382    -127.445    -258.036
  O      101.643    -127.536    -259.204
  H      101.233    -121.077    -260.091
  H      101.057    -127.278    -259.940
  H      106.091    -125.263    -256.473
  H      103.712    -124.600    -256.680
  H      102.684    -121.204    -256.974
  H      103.160    -122.138    -259.614
  H      102.200    -124.310    -259.123
  H      100.039    -122.790    -257.559
  H      108.778    -122.787    -257.169
  H      100.011    -124.845    -256.164
  H      108.465    -124.415    -256.642
  H       99.488    -125.160    -257.837
  P      100.545    -124.625    -261.127
  C       99.681    -127.038    -261.286
  O       99.615    -125.807    -260.584
  O      101.894    -125.045    -261.612
  O       99.672    -124.012    -262.327
  H      100.006    -124.368    -263.173
  H       99.348    -127.838    -260.624
  H      100.702    -127.249    -261.614
  H       99.017    -126.991    -262.155
  H      101.405    -129.597    -255.132
  H       99.844    -129.202    -255.810
  H      100.765    -127.979    -254.968

 3  4  5  6  7  8  9  10  11  12  13  23  27  28  29  30  32 0
 6-311+G(2d,p)
 ****
 34  35 0
 6-311+G(2d,p)
 ****
 1  2  14  15  16  17  18  19  20  21  22  24  25  26 0
 3-21G
 ****
 31  33  36  37  38  39  40  41  42  43  44  45  46 0
 3-21G
 ****


