%nproc=1
%NoSave
%Mem=1900MB
#P OB98/GEN NMR

erre ene a

0 1
  C     -196.899      64.670     127.838
  O     -196.514      63.866     126.718
  P     -197.379      63.912     125.379
  C     -199.011      61.985     125.937
  O     -198.863      63.378     125.689
  C     -200.488      61.657     126.197
  O     -201.274      61.768     124.989
  C     -200.701      60.232     126.669
  O     -200.238      59.903     127.969
  C     -202.182      60.011     126.387
  O     -203.001      60.535     127.432
  C     -202.371      60.829     125.090
  N     -202.460      59.985     123.900
  C     -203.637      59.268     123.744
  O     -204.551      59.278     124.569
  N     -203.720      58.488     122.616
  C     -202.742      58.344     121.669
  O     -202.861      57.618     120.693
  C     -201.508      59.122     121.900
  C     -201.429      59.892     122.981
  O     -196.736      63.333     124.163
  O     -197.627      65.494     125.176
  H     -202.624      61.408     127.686
  H     -197.534      65.687     124.222
  H     -204.566      57.964     122.480
  H     -200.712      59.025     121.170
  H     -200.527      60.472     123.175
  H     -203.291      61.429     125.146
  H     -202.424      58.946     126.293
  H     -200.152      59.560     125.983
  H     -200.882      62.379     126.920
  H     -198.403      61.696     126.798
  H     -198.627      61.419     125.083
  P     -198.781      59.300     128.249
  C     -199.637      56.860     128.019
  O     -198.700      57.838     127.609
  O     -198.225      59.479     129.625
  O     -197.882      60.158     127.228
  H     -197.001      60.286     127.628
  H     -199.420      55.931     127.498
  H     -200.651      57.181     127.771
  H     -199.556      56.685     129.099
  H     -196.211      64.514     128.642
  H     -197.884      64.395     128.153
  H     -196.890      65.702     127.556

 3  4  5  6  7  8  9  10  11  12  13  23  28  29  30  31  32 0
 6-311+G(2d,p)
 ****
 33  34 0
 6-311+G(2d,p)
 ****
 1  2  14  15  16  17  18  19  20  21  22  24  25  26  27 0
 3-21G
 ****
 35  36  37  38  39  40  41  42  43  44  45 0
 3-21G
 ****


