%nproc=1
%NoSave
%Mem=1900MB
#P OB98/GEN NMR

erre ene a

0 1
  C      -81.263     103.854     362.622
  O      -80.559     102.661     362.334
  H      -81.895     104.104     361.766
  H      -80.555     104.672     362.790
  H      -81.897     103.720     363.506
  P      -79.701     102.018     363.524
  C      -77.543     102.793     364.803
  O      -78.326     102.853     363.620
  C      -76.470     103.882     364.770
  O      -77.043     105.192     364.929
  C      -75.460     103.786     365.901
  O      -74.577     102.696     365.759
  C      -74.784     105.146     365.783
  O      -73.824     105.155     364.716
  C      -75.990     106.058     365.444
  N      -76.446     106.841     366.582
  C      -76.021     108.175     366.606
  O      -75.314     108.621     365.698
  N      -76.375     108.957     367.680
  C      -77.109     108.461     368.625
  N      -77.425     109.282     369.661
  C      -77.603     107.070     368.622
  C      -77.230     106.321     367.585
  O      -79.228     100.624     362.899
  O      -80.412     101.904     364.833
  H      -73.089     104.581     365.009
  H      -78.780     100.714     362.041
  H      -78.223     106.706     369.431
  H      -77.548     105.290     367.507
  H      -75.732     106.748     364.628
  H      -74.252     105.421     366.694
  H      -75.978     103.751     366.868
  H      -75.977     103.840     363.787
  H      -77.050     110.229     369.640
  H      -77.090     101.805     364.929
  H      -77.959     109.003     370.469
  H      -78.216     102.957     365.652
  P      -73.442     102.416     366.860
  C      -71.477     103.734     367.870
  O      -72.595     103.772     366.985
  O      -72.626     101.188     366.629
  O      -74.265     102.400     368.240
  H      -74.737     103.225     368.437
  H      -70.991     104.687     367.872
  H      -70.788     102.984     367.542
  H      -71.813     103.502     368.859

 6  7  8  9  10  11  12  13  14  15  16  26  30  31  32  33  35 0
 6-311+G(2d,p)
 ****
 37  38 0
 6-311+G(2d,p)
 ****
 1  2  3  4  5  17  18  19  20  21  22  23  24  25 0
 3-21G
 ****
 27  28  29  34  36  39  40  41  42  43  44  45  46 0
 3-21G
 ****


