%nproc=1
%NoSave
%Mem=1900MB
#P OB98/GEN NMR

erre ene a

0 1
  C     -174.667      79.014    -179.829
  O     -173.932      79.756    -180.784
  H     -174.421      77.955    -179.945
  H     -175.742      79.142    -179.985
  H     -174.398      79.327    -178.816
  P     -174.175      81.335    -180.874
  C     -175.826      80.971    -182.833
  O     -175.618      81.534    -181.542
  C     -175.222      81.867    -183.913
  O     -175.585      81.385    -185.222
  C     -175.697      83.314    -183.856
  O     -175.069      84.003    -182.795
  C     -175.323      83.784    -185.252
  O     -173.918      84.070    -185.342
  C     -175.681      82.536    -186.097
  N     -177.001      82.609    -186.715
  C     -177.044      83.147    -188.009
  O     -176.013      83.538    -188.553
  N     -178.264      83.239    -188.635
  C     -179.332      82.798    -188.049
  N     -180.505      82.916    -188.726
  C     -179.322      82.192    -186.704
  C     -178.139      82.141    -186.097
  O     -173.082      82.137    -181.513
  O     -174.415      81.776    -179.354
  H     -173.467      83.206    -185.407
  H     -173.582      82.077    -178.948
  H     -180.237      81.828    -186.256
  H     -178.043      81.713    -185.103
  H     -174.940      82.388    -186.896
  H     -175.853      84.693    -185.540
  H     -176.787      83.353    -183.760
  H     -174.130      81.808    -183.830
  H     -180.460      83.319    -189.656
  H     -176.908      80.884    -182.976
  H     -181.362      82.464    -188.442
  H     -175.390      79.966    -182.891
  P     -175.900      84.536    -181.532
  C     -175.635      86.935    -182.420
  O     -176.546      85.933    -181.992
  O     -175.142      84.587    -180.248
  O     -177.173      83.569    -181.484
  H     -176.927      82.691    -181.097
  H     -176.177      87.814    -182.700
  H     -175.079      86.576    -183.261
  H     -174.962      87.170    -181.622

 6  7  8  9  10  11  12  13  14  15  16  26  30  31  32  33  35 0
 6-311+G(2d,p)
 ****
 37  38 0
 6-311+G(2d,p)
 ****
 1  2  3  4  5  17  18  19  20  21  22  23  24  25 0
 3-21G
 ****
 27  28  29  34  36  39  40  41  42  43  44  45  46 0
 3-21G
 ****


