%nproc=1
%NoSave
%Mem=1900MB
#P OB98/GEN NMR

erre ene a

0 1
  C     -177.316    -804.735     328.996
  O     -176.801    -806.038     328.827
  H     -176.504    -804.015     328.846
  H     -177.706    -804.611     330.012
  H     -178.106    -804.526     328.268
  P     -177.822    -807.273     328.813
  C     -176.805    -808.461     326.757
  O     -177.040    -808.512     328.158
  C     -175.442    -809.077     326.414
  O     -174.400    -808.295     327.083
  C     -175.273    -810.539     326.873
  O     -174.367    -811.165     325.948
  C     -174.619    -810.340     328.229
  O     -174.107    -811.536     328.763
  C     -173.627    -809.228     327.871
  N     -173.011    -808.551     329.007
  C     -172.030    -809.240     329.715
  O     -171.642    -810.379     329.447
  N     -171.486    -808.570     330.777
  C     -171.803    -807.307     331.186
  O     -171.258    -806.748     332.128
  C     -172.855    -806.636     330.405
  C     -173.396    -807.274     329.367
  O     -179.167    -806.999     328.233
  O     -177.917    -807.698     330.357
  H     -178.750    -807.356     330.739
  H     -173.796    -811.369     329.682
  H     -170.765    -809.052     331.303
  H     -173.137    -805.637     330.707
  H     -174.164    -806.798     328.766
  H     -172.840    -809.622     327.222
  H     -175.360    -809.989     328.949
  H     -176.214    -811.091     326.898
  H     -175.269    -808.975     325.338
  H     -176.827    -807.415     326.443
  H     -177.600    -809.008     326.243
  P     -174.578    -812.654     325.380
  C     -176.312    -812.369     323.479
  O     -174.938    -812.550     323.820
  O     -175.549    -813.474     326.167
  O     -173.119    -813.316     325.397
  H     -173.205    -814.284     325.468
  H     -176.411    -812.316     322.415
  H     -176.671    -811.461     323.917
  H     -176.883    -813.194     323.850

 6  7  8  9  10  11  12  13  14  15  16  27  31  32  33  34  35 0
 6-311+G(2d,p)
 ****
 36  37 0
 6-311+G(2d,p)
 ****
 1  2  3  4  5  17  18  19  20  21  22  23  24  25 0
 3-21G
 ****
 26  28  29  30  38  39  40  41  42  43  44  45 0
 3-21G
 ****


