%nproc=1
%NoSave
%Mem=1900MB
#P OB98/GEN NMR

erre ene a

0 1
  C     -427.295     199.848     849.053
  O     -427.923     198.588     849.072
  P     -427.106     197.293     849.563
  C     -429.398     196.146     849.681
  O     -428.040     196.002     849.318
  C     -430.109     194.786     849.615
  O     -429.223     193.731     850.057
  C     -431.337     194.686     850.514
  O     -432.439     195.369     849.944
  C     -431.510     193.170     850.612
  O     -432.197     192.665     849.445
  C     -430.050     192.691     850.622
  N     -429.703     188.984     854.114
  C     -430.382     189.063     852.938
  N     -430.452     190.098     852.088
  C     -429.752     191.152     852.557
  C     -429.054     191.227     853.754
  C     -429.021     190.068     854.544
  N     -428.295     189.970     855.708
  N     -428.501     192.491     853.901
  C     -428.870     193.153     852.824
  N     -429.571     192.373     851.954
  O     -426.509     197.396     850.927
  O     -425.959     197.122     848.449
  H     -433.102     193.005     849.478
  H     -425.084     197.196     848.875
  H     -430.916     188.164     852.646
  H     -428.631     194.191     852.618
  H     -429.914     191.792     849.992
  H     -432.086     192.871     851.487
  H     -431.108     195.085     851.512
  H     -430.382     194.597     848.566
  H     -429.879     196.839     848.995
  H     -428.226     189.036     856.115
  H     -427.552     190.633     855.874
  H     -429.467     196.554     850.710
  P     -432.860     196.818     850.502
  C     -434.558     197.212     848.610
  O     -434.361     197.087     850.009
  O     -431.882     197.922     850.232
  O     -433.033     196.562     852.079
  H     -432.795     197.380     852.555
  H     -434.230     198.216     848.293
  H     -435.606     197.096     848.388
  H     -433.970     196.453     848.062
  H     -427.986     200.585     848.701
  H     -426.447     199.814     848.402
  H     -426.975     200.102     850.042

 3  4  5  6  7  8  9  10  11  12  22  25  29  30  31  32 0
 6-311+G(2d,p)
 ****
 33  36  37 0
 6-311+G(2d,p)
 ****
 1  2  13  14  15  16  17  18  19  20  21  23  24  26 0
 3-21G
 ****
 27  28  34  35  38  39  40  41  42  43  44  45  46  47  48 0
 3-21G
 ****


