%nproc=1
%NoSave
%Mem=1900MB
#P OB98/GEN NMR

erre ene a

0 1
  C     -889.625    -899.100    -780.442
  O     -890.435    -898.420    -779.508
  H     -889.215    -900.000    -779.968
  H     -888.785    -898.460    -780.755
  H     -890.215    -899.400    -781.318
  P     -891.275    -897.160    -780.060
  C     -893.585    -898.070    -779.216
  O     -892.585    -897.070    -779.137
  C     -894.245    -898.320    -777.849
  O     -893.295    -899.000    -777.011
  C     -894.655    -897.010    -777.142
  O     -895.845    -897.260    -776.413
  C     -893.505    -896.750    -776.163
  O     -893.895    -895.950    -775.062
  C     -893.115    -898.200    -775.790
  N     -891.755    -898.300    -775.278
  C     -891.585    -898.260    -773.867
  O     -892.595    -898.100    -773.137
  N     -890.345    -898.300    -773.338
  C     -889.315    -898.360    -774.144
  N     -888.095    -898.380    -773.539
  C     -889.425    -898.370    -775.617
  C     -890.665    -898.360    -776.102
  O     -891.815    -897.710    -781.452
  O     -890.475    -895.890    -780.155
  H     -893.115    -895.850    -774.448
  H     -892.175    -898.620    -781.397
  H     -888.525    -898.390    -776.237
  H     -890.825    -898.380    -777.167
  H     -893.805    -898.620    -775.029
  H     -892.675    -896.280    -776.652
  H     -894.795    -896.160    -777.826
  H     -895.095    -898.980    -777.981
  H     -888.055    -898.340    -772.541
  H     -893.185    -899.010    -779.596
  H     -887.225    -898.360    -774.058
  H     -894.345    -897.730    -779.934
  P     -896.925    -896.090    -776.214
  C     -899.015    -896.780    -777.617
  O     -898.415    -896.680    -776.321
  O     -896.705    -894.860    -777.015
  O     -896.805    -895.760    -774.652
  H     -896.855    -894.790    -774.539
  H     -900.000    -897.188    -777.524
  H     -898.422    -897.419    -778.237
  H     -899.073    -895.807    -778.060

 6  7  8  9  10  11  12  13  14  15  16  26  30  31  32  33  35 0
 6-311+G(2d,p)
 ****
 37  38 0
 6-311+G(2d,p)
 ****
 1  2  3  4  5  17  18  19  20  21  22  23  24  25 0
 3-21G
 ****
 27  28  29  34  36  39  40  41  42  43  44  45  46 0
 3-21G
 ****


