%nproc=1
%NoSave
%Mem=1900MB
#P OB98/GEN NMR

erre ene a

0 1
  C     -965.263     234.722     215.427
  O     -964.056     234.416     214.750
  P     -963.062     235.633     214.407
  C     -961.379     235.076     216.318
  O     -962.290     236.011     215.758
  C     -959.952     235.633     216.239
  O     -959.808     236.760     217.119
  C     -958.890     234.628     216.676
  O     -958.600     233.690     215.646
  C     -957.715     235.555     216.998
  O     -956.990     235.898     215.808
  C     -958.437     236.791     217.573
  N     -958.345     236.871     219.034
  C     -957.116     237.222     219.553
  O     -956.126     237.446     218.839
  N     -957.023     237.280     220.918
  C     -958.022     236.965     221.802
  O     -957.861     236.983     223.015
  C     -959.298     236.565     221.198
  C     -959.405     236.524     219.860
  O     -964.052     236.875     214.174
  O     -962.187     235.400     213.229
  H     -957.663     236.121     215.136
  H     -963.697     237.449     213.472
  H     -956.147     237.561     221.314
  H     -960.111     236.307     221.867
  H     -960.334     236.224     219.396
  H     -958.001     237.703     217.157
  H     -957.010     235.089     217.692
  H     -959.208     234.117     217.598
  H     -959.774     235.969     215.211
  H     -961.435     234.137     215.758
  H     -961.659     234.874     217.356
  P     -958.698     232.136     216.032
  C     -960.474     231.442     214.241
  O     -960.172     231.688     215.597
  O     -958.734     232.234     217.630
  O     -957.571     231.330     215.470
  H     -959.190     233.036     217.938
  H     -959.624     230.993     213.719
  H     -960.739     232.391     213.747
  H     -961.316     230.755     214.193
  H     -965.820     233.823     215.587
  H     -965.842     235.399     214.835
  H     -965.038     235.175     216.370

 3  4  5  6  7  8  9  10  11  12  13  23  28  29  30  31  32 0
 6-311+G(2d,p)
 ****
 33  34 0
 6-311+G(2d,p)
 ****
 1  2  14  15  16  17  18  19  20  21  22  24  25  26 0
 3-21G
 ****
 27  35  36  37  38  39  40  41  42  43  44  45 0
 3-21G
 ****


