%nproc=1
%NoSave
%Mem=1900MB
#P OB98/GEN NMR

erre ene a

0 1
  C      144.102     303.373      92.743
  O      145.452     303.004      92.544
  P      146.278     302.244      93.685
  C      145.059     300.023      93.281
  O      145.375     301.034      94.227
  C      144.700     298.704      93.969
  O      144.063     297.820      93.014
  C      145.902     297.963      94.574
  O      145.463     297.378      95.805
  C      146.190     296.888      93.544
  O      146.913     295.794      94.093
  C      144.772     296.564      93.064
  N      144.760     295.898      91.773
  C      145.240     294.586      91.733
  O      145.770     294.090      92.729
  N      145.122     293.880      90.563
  C      144.738     294.492      89.482
  N      144.570     293.738      88.360
  C      144.463     295.939      89.436
  C      144.447     296.565      90.608
  O      146.847     303.119      94.749
  O      147.445     301.486      92.887
  H      148.307     301.720      93.284
  H      146.989     295.093      93.409
  H      144.269     296.427      88.492
  H      144.229     297.626      90.686
  H      144.254     295.929      93.795
  H      146.784     297.313      92.728
  H      146.754     298.624      94.767
  H      143.960     298.923      94.755
  H      144.731     292.744      88.440
  H      145.934     299.864      92.650
  H      143.987     294.048      87.586
  H      144.239     300.359      92.636
  P      146.465     297.404      97.060
  C      145.651     299.580      98.217
  O      146.675     298.933      97.490
  O      147.872     297.064      96.355
  O      146.198     296.423      98.150
  H      148.467     296.666      97.016
  H      145.928     300.623      98.365
  H      145.525     299.111      99.198
  H      144.705     299.545      97.668
  H      143.734     303.867      91.868
  H      144.033     304.035      93.581
  H      143.517     302.497      92.931

 3  4  5  6  7  8  9  10  11  12  13  24  27  28  29  30  32 0
 6-311+G(2d,p)
 ****
 34  35 0
 6-311+G(2d,p)
 ****
 1  2  14  15  16  17  18  19  20  21  22  23  25  26 0
 3-21G
 ****
 31  33  36  37  38  39  40  41  42  43  44  45  46 0
 3-21G
 ****


