%nproc=1
%NoSave
%Mem=1900MB
#P OB98/GEN NMR

erre ene a

0 1
  C      -34.985     749.613     401.185
  O      -33.916     750.530     401.295
  H      -35.915     750.123     401.459
  H      -34.830     748.778     401.871
  H      -35.074     749.246     400.158
  P      -32.491     750.046     400.743
  C      -31.786     752.285     399.636
  O      -31.557     751.351     400.681
  C      -31.028     753.581     399.915
  O      -31.700     754.341     400.948
  C      -29.592     753.377     400.399
  O      -28.701     753.155     399.317
  C      -29.336     754.720     401.062
  O      -29.070     755.719     400.052
  C      -30.672     755.004     401.747
  N      -29.168     755.752     406.535
  C      -28.857     756.459     405.383
  N      -28.029     757.509     405.532
  N      -29.324     756.158     404.200
  C      -30.140     755.076     404.198
  C      -30.517     754.291     405.273
  C      -30.004     754.643     406.581
  O      -30.261     754.059     407.628
  N      -31.357     753.288     404.886
  C      -31.485     753.447     403.579
  N      -30.759     754.513     403.116
  O      -32.778     749.725     399.200
  O      -31.901     748.862     401.442
  H      -28.753     756.510     400.513
  H      -32.240     748.956     398.929
  H      -28.773     756.013     407.416
  H      -32.085     752.820     402.935
  H      -30.915     756.073     401.780
  H      -28.468     754.700     401.726
  H      -27.598     757.759     406.404
  H      -29.533     752.581     401.150
  H      -27.822     758.059     404.704
  H      -31.047     754.185     399.001
  H      -32.859     752.496     399.579
  H      -31.454     751.851     398.689
  P      -27.516     752.093     399.539
  C      -26.825     752.246     397.040
  O      -26.429     752.411     398.393
  O      -28.177     750.719     399.057
  O      -26.999     752.007     400.931
  H      -27.707     749.962     399.460
  H      -26.006     752.492     396.396
  H      -27.651     752.892     396.829
  H      -27.116     751.230     396.875

 6  7  8  9  10  11  12  13  14  15  26  29  33  34 0
 6-311+G(2d,p)
 ****
 36  38  39  40  41 0
 6-311+G(2d,p)
 ****
 1  2  3  4  5  16  17  18  19  20  21  22  23  24  25 0
 3-21G
 ****
 27  28  30  31  32  35  37  42  43  44  45  46  47 0
 3-21G
 ****
 48  49 0
 3-21G
 ****


