%nproc=1
%NoSave
%Mem=1900MB
#P OB98/GEN NMR

erre ene a

0 1
  C     -100.155    -245.062     -10.468
  O     -100.930    -246.240     -10.440
  H     -100.497    -244.398      -9.669
  H     -100.288    -244.556     -11.428
  H      -99.092    -245.280     -10.315
  P     -100.379    -247.545     -11.185
  C     -101.410    -246.986     -13.486
  O     -100.214    -247.185     -12.745
  C     -101.159    -246.995     -14.994
  O     -102.402    -246.832     -15.714
  C     -100.257    -245.835     -15.441
  O      -98.864    -246.067     -15.313
  C     -100.652    -245.676     -16.904
  O      -99.914    -246.575     -17.740
  C     -102.140    -246.053     -16.899
  N     -105.065    -242.951     -19.724
  C     -104.264    -244.004     -20.132
  N     -104.190    -244.217     -21.465
  N     -103.589    -244.756     -19.305
  C     -103.685    -244.368     -18.012
  C     -104.433    -243.331     -17.485
  C     -105.225    -242.538     -18.412
  O     -105.940    -241.587     -18.103
  N     -104.285    -243.240     -16.126
  C     -103.391    -244.164     -15.833
  N     -103.018    -244.892     -16.942
  O     -101.641    -248.540     -11.194
  O      -99.189    -248.194     -10.547
  H     -100.277    -246.524     -18.644
  H     -101.334    -249.462     -11.229
  H     -105.585    -242.420     -20.407
  H     -103.002    -244.367     -14.840
  H     -102.406    -246.682     -17.755
  H     -100.450    -244.668     -17.271
  H     -104.595    -243.592     -22.147
  H     -100.534    -244.917     -14.907
  H     -103.419    -244.793     -21.814
  H     -100.742    -247.966     -15.286
  H     -101.813    -246.017     -13.181
  H     -102.153    -247.744     -13.219
  P      -97.882    -244.850     -14.965
  C      -96.807    -244.698     -17.331
  O      -97.591    -244.076     -16.335
  O      -96.499    -245.595     -14.642
  O      -98.325    -243.987     -13.825
  H      -96.394    -245.717     -13.684
  H      -96.715    -244.044     -18.173
  H      -97.277    -245.609     -17.637
  H      -95.835    -244.913     -16.938

 6  7  8  9  10  11  12  13  14  15  26  29  33  34 0
 6-311+G(2d,p)
 ****
 36  38  39  40  41 0
 6-311+G(2d,p)
 ****
 1  2  3  4  5  16  17  18  19  20  21  22  23  24  25 0
 3-21G
 ****
 27  28  30  31  32  35  37  42  43  44  45  46  47 0
 3-21G
 ****
 48  49 0
 3-21G
 ****


