%nproc=1
%NoSave
%Mem=1900MB
#P OB98/GEN NMR

erre ene a

0 1
  C      276.554    -497.953    -253.507
  O      277.715    -497.249    -253.902
  H      276.085    -497.414    -252.678
  H      276.822    -498.954    -253.161
  H      275.840    -498.018    -254.331
  P      278.511    -497.743    -255.202
  C      277.271    -496.513    -257.106
  O      277.467    -497.747    -256.418
  C      277.149    -496.772    -258.603
  O      278.440    -497.099    -259.163
  C      276.237    -497.939    -258.960
  O      274.874    -497.582    -258.841
  C      276.696    -498.238    -260.383
  O      276.093    -497.333    -261.312
  C      278.217    -497.986    -260.276
  N      278.986    -499.223    -260.128
  C      280.076    -499.384    -260.984
  O      280.373    -498.573    -261.859
  N      280.782    -500.548    -260.831
  C      280.460    -501.583    -259.999
  O      281.086    -502.639    -259.966
  C      279.291    -501.365    -259.138
  C      278.622    -500.214    -259.238
  O      279.294    -499.004    -255.042
  O      279.463    -496.503    -255.555
  H      275.120    -497.441    -261.215
  H      280.378    -496.716    -255.290
  H      281.566    -500.689    -261.453
  H      279.014    -502.151    -258.458
  H      277.753    -500.036    -258.615
  H      278.577    -497.466    -261.175
  H      276.433    -499.242    -260.694
  H      276.468    -498.801    -258.323
  H      276.800    -495.847    -259.082
  H      278.128    -495.862    -256.911
  H      276.366    -496.031    -256.717
  P      273.773    -498.714    -258.576
  C      274.701    -499.054    -256.206
  O      274.330    -499.685    -257.426
  O      273.267    -499.404    -259.800
  O      272.593    -497.926    -257.841
  H      271.780    -497.991    -258.378
  H      275.056    -499.791    -255.516
  H      273.851    -498.556    -255.789
  H      275.476    -498.340    -256.395

 6  7  8  9  10  11  12  13  14  15  16  26  31  32  33  34  35 0
 6-311+G(2d,p)
 ****
 36  37 0
 6-311+G(2d,p)
 ****
 1  2  3  4  5  17  18  19  20  21  22  23  24  25 0
 3-21G
 ****
 27  28  29  30  38  39  40  41  42  43  44  45 0
 3-21G
 ****


