%nproc=1
%NoSave
%Mem=1900MB
#P OB98/GEN NMR

erre ene a

0 1
  C      163.896     227.141     426.923
  O      162.831     226.550     427.643
  P      161.477     227.359     427.909
  C      159.923     226.241     426.211
  O      160.664     227.413     426.526
  C      158.971     226.483     425.040
  O      158.329     225.225     424.682
  C      157.859     227.503     425.314
  O      157.605     228.183     424.080
  C      156.671     226.616     425.658
  O      155.422     227.280     425.497
  C      156.904     225.462     424.694
  N      152.496     222.884     424.450
  C      152.848     224.104     423.991
  N      154.038     224.729     424.115
  C      154.907     223.968     424.799
  C      154.681     222.721     425.357
  C      153.405     222.164     425.148
  N      153.036     220.910     425.582
  N      155.802     222.283     426.036
  C      156.685     223.250     425.885
  N      156.211     224.255     425.089
  O      161.646     228.683     428.583
  O      160.602     226.367     428.807
  H      155.382     228.015     426.135
  H      160.585     226.682     429.736
  H      152.084     224.642     423.437
  H      157.676     223.269     426.324
  H      156.591     225.708     423.672
  H      156.748     226.288     426.702
  H      158.096     228.218     426.108
  H      159.570     226.789     424.172
  H      159.341     225.959     427.092
  H      152.151     220.556     425.262
  H      153.764     220.253     425.861
  H      160.612     225.417     425.975
  P      156.798     229.571     424.084
  C      158.726     230.758     422.887
  O      157.896     230.733     424.036
  O      155.765     229.706     425.151
  O      156.149     229.627     422.617
  H      155.419     230.280     422.611
  H      159.524     230.023     423.001
  H      159.168     231.758     422.788
  H      158.152     230.539     421.982
  H      164.707     226.446     426.851
  H      164.225     228.022     427.433
  H      163.561     227.401     425.941

 3  4  5  6  7  8  9  10  11  12  22  25  29  30  31  32 0
 6-311+G(2d,p)
 ****
 33  36  37 0
 6-311+G(2d,p)
 ****
 1  2  13  14  15  16  17  18  19  20  21  23  24  26 0
 3-21G
 ****
 27  28  34  35  38  39  40  41  42  43  44  45  46  47  48 0
 3-21G
 ****


