%nproc=1
%NoSave
%Mem=1900MB
#P OB98/GEN NMR

erre ene a

0 1
  C     -241.990    -681.615    -416.457
  O     -242.114    -683.023    -416.560
  H     -242.778    -681.151    -417.054
  H     -241.023    -681.290    -416.848
  H     -242.102    -681.294    -415.417
  P     -241.170    -683.946    -415.652
  C     -243.126    -684.998    -414.341
  O     -241.947    -684.205    -414.280
  C     -242.873    -686.347    -413.691
  O     -242.376    -686.170    -412.346
  C     -244.130    -687.214    -413.553
  O     -244.488    -687.794    -414.792
  C     -243.679    -688.197    -412.487
  O     -242.884    -689.249    -413.062
  C     -242.831    -687.305    -411.562
  N     -243.555    -686.864    -410.375
  C     -243.412    -687.653    -409.230
  O     -242.750    -688.693    -409.200
  N     -244.098    -687.222    -408.124
  C     -244.967    -686.172    -408.081
  O     -245.620    -685.882    -407.080
  C     -245.099    -685.391    -409.307
  C     -244.397    -685.762    -410.384
  O     -239.757    -683.482    -415.506
  O     -241.240    -685.375    -416.380
  H     -243.456    -689.709    -413.707
  H     -240.412    -685.536    -416.865
  H     -244.023    -687.792    -407.291
  H     -245.771    -684.544    -409.311
  H     -244.481    -685.202    -411.308
  H     -241.932    -687.841    -411.237
  H     -244.523    -688.673    -411.990
  H     -244.952    -686.613    -413.155
  H     -242.097    -686.877    -414.272
  H     -243.393    -685.141    -415.394
  H     -243.944    -684.459    -413.834
  P     -245.666    -687.153    -415.666
  C     -244.005    -686.552    -417.536
  O     -245.005    -686.063    -416.646
  O     -246.847    -686.666    -414.887
  O     -246.090    -688.322    -416.670
  H     -247.024    -688.559    -416.519
  H     -243.637    -685.746    -418.137
  H     -244.428    -687.304    -418.169
  H     -243.199    -686.972    -416.971

 6  7  8  9  10  11  12  13  14  15  16  26  31  32  33  34  35 0
 6-311+G(2d,p)
 ****
 36  37 0
 6-311+G(2d,p)
 ****
 1  2  3  4  5  17  18  19  20  21  22  23  24  25 0
 3-21G
 ****
 27  28  29  30  38  39  40  41  42  43  44  45 0
 3-21G
 ****


