%nproc=1
%NoSave
%Mem=1900MB
#P OB98/GEN NMR

erre ene a

0 1
  C     -301.580     -23.573    -310.644
  O     -301.141     -24.006    -311.915
  H     -301.345     -22.508    -310.540
  H     -301.074     -24.122    -309.849
  H     -302.663     -23.697    -310.558
  P     -301.268     -25.566    -312.273
  C     -298.868     -25.919    -311.350
  O     -300.240     -26.287    -311.266
  C     -297.983     -27.154    -311.184
  O     -298.208     -27.789    -309.909
  C     -298.218     -28.258    -312.218
  O     -297.696     -27.954    -313.500
  C     -297.484     -29.404    -311.543
  O     -296.065     -29.233    -311.708
  C     -297.892     -29.205    -310.064
  N     -299.037     -30.024    -309.672
  C     -298.746     -31.259    -309.077
  O     -297.581     -31.613    -308.906
  N     -299.789     -32.088    -308.721
  C     -301.011     -31.723    -308.959
  N     -302.001     -32.603    -308.637
  C     -301.365     -30.426    -309.573
  C     -300.344     -29.635    -309.900
  O     -301.109     -25.931    -313.716
  O     -302.681     -26.003    -311.657
  H     -295.629     -29.859    -311.098
  H     -302.811     -26.960    -311.862
  H     -302.400     -30.177    -309.751
  H     -300.520     -28.674    -310.368
  H     -297.056     -29.419    -309.392
  H     -297.741     -30.387    -311.955
  H     -299.283     -28.512    -312.278
  H     -296.935     -26.814    -311.191
  H     -301.718     -33.498    -308.258
  H     -298.664     -25.183    -310.570
  H     -302.931     -32.517    -309.030
  H     -298.658     -25.471    -312.326
  P     -298.392     -28.642    -314.776
  C     -296.478     -30.346    -315.232
  O     -297.827     -30.142    -314.853
  O     -297.681     -27.902    -316.010
  O     -299.887     -28.543    -314.831
  H     -298.211     -27.138    -316.311
  H     -296.263     -31.394    -315.234
  H     -295.833     -29.851    -314.536
  H     -296.319     -29.947    -316.212

 6  7  8  9  10  11  12  13  14  15  16  26  30  31  32  33  35 0
 6-311+G(2d,p)
 ****
 37  38 0
 6-311+G(2d,p)
 ****
 1  2  3  4  5  17  18  19  20  21  22  23  24  25 0
 3-21G
 ****
 27  28  29  34  36  39  40  41  42  43  44  45  46 0
 3-21G
 ****


