%nproc=1
%NoSave
%Mem=1900MB
#P OB98/GEN NMR

erre ene a

0 1
  C       -2.265      45.556    -457.027
  O       -2.017      44.523    -456.064
  P       -0.531      43.923    -455.992
  C        1.388      45.391    -455.024
  O        0.235      44.602    -454.758
  C        1.854      46.095    -453.743
  O        0.815      46.935    -453.204
  C        2.200      45.124    -452.625
  O        3.478      44.554    -452.844
  C        2.128      46.020    -451.393
  O        3.397      46.637    -451.109
  C        1.079      47.081    -451.797
  N       -0.141      46.983    -451.017
  C        0.015      47.060    -449.624
  O        1.140      47.180    -449.132
  N       -1.101      46.974    -448.834
  C       -2.266      46.799    -449.378
  N       -3.336      46.714    -448.542
  C       -2.471      46.686    -450.837
  C       -1.376      46.782    -451.590
  O        0.188      44.566    -457.271
  O       -0.479      42.431    -456.026
  H        4.019      45.896    -450.948
  H        0.848      43.951    -457.635
  H       -3.459      46.533    -451.245
  H       -1.432      46.711    -452.670
  H        1.486      48.094    -451.659
  H        1.849      45.452    -450.504
  H        1.437      44.339    -452.556
  H        2.723      46.719    -453.985
  H       -3.160      46.795    -447.545
  H        1.163      46.135    -455.793
  H       -4.285      46.573    -448.858
  H        2.176      44.748    -455.427
  P        3.581      43.319    -453.863
  C        3.771      43.173    -456.416
  O        3.977      43.978    -455.269
  O        2.037      42.948    -454.093
  O        4.381      42.137    -453.430
  H        1.965      42.140    -454.631
  H        3.879      43.796    -457.307
  H        2.770      42.736    -456.412
  H        4.526      42.377    -456.452
  H       -3.289      45.862    -456.967
  H       -2.061      45.184    -458.009
  H       -1.630      46.393    -456.824

 3  4  5  6  7  8  9  10  11  12  13  21  23  27  28  29  30  32 0
 6-311+G(2d,p)
 ****
 34  35 0
 6-311+G(2d,p)
 ****
 1  2  14  15  16  17  18  19  20  22  24  25  26 0
 3-21G
 ****
 31  33  36  37  38  39  40  41  42  43  44  45  46 0
 3-21G
 ****


