%nproc=1
%NoSave
%Mem=1900MB
#P OB98/GEN NMR

erre ene a

0 1
  C     -480.746       3.225    -228.194
  O     -479.515       3.086    -227.506
  P     -479.591       2.886    -225.912
  C     -477.931       4.881    -225.600
  O     -479.177       4.288    -225.258
  C     -477.914       6.339    -225.148
  O     -478.782       7.133    -225.979
  C     -478.384       6.553    -223.713
  O     -477.336       6.281    -222.801
  C     -478.809       8.020    -223.748
  O     -477.663       8.888    -223.618
  C     -479.430       8.137    -225.148
  N     -483.896      10.392    -224.427
  C     -482.622      10.838    -224.146
  N     -482.519      12.087    -223.642
  N     -481.540      10.132    -224.344
  C     -481.794       8.893    -224.841
  C     -483.014       8.334    -225.145
  C     -484.193       9.147    -224.968
  O     -485.336       8.833    -225.296
  N     -482.873       7.049    -225.603
  C     -481.569       6.850    -225.610
  N     -480.869       7.946    -225.172
  O     -478.348       1.929    -225.611
  O     -480.884       2.328    -225.404
  H     -477.106       8.575    -222.883
  H     -478.639       1.000    -225.525
  H     -484.689      10.991    -224.270
  H     -481.085       5.946    -225.935
  H     -479.228       9.114    -225.605
  H     -479.487       8.272    -222.930
  H     -483.307      12.683    -223.441
  H     -479.254       5.923    -223.499
  H     -481.590      12.431    -223.424
  H     -476.891       6.719    -225.277
  H     -477.803       4.836    -226.685
  H     -477.124       4.314    -225.122
  P     -477.699       5.459    -221.476
  C     -476.912       7.628    -220.293
  O     -477.770       6.510    -220.271
  O     -476.362       4.620    -221.183
  O     -478.881       4.561    -221.610
  H     -476.599       3.747    -220.818
  H     -477.396       8.460    -219.770
  H     -476.680       7.943    -221.318
  H     -475.977       7.385    -219.777
  H     -480.558       3.350    -229.240
  H     -481.269       4.081    -227.820
  H     -481.341       2.349    -228.041

 3  4  5  6  7  8  9  10  11  12  23  26  30  31 0
 6-311+G(2d,p)
 ****
 33  35  36  37  38 0
 6-311+G(2d,p)
 ****
 1  2  13  14  15  16  17  18  19  20  21  22  24  25 0
 3-21G
 ****
 27  28  29  32  34  39  40  41  42  43  44  45  46  47  48  49 0
 3-21G
 ****


