%nproc=1
%NoSave
%Mem=1900MB
#P OB98/GEN NMR

erre ene a

0 1
  C      -95.456     393.767     646.621
  O      -95.546     392.879     647.717
  H      -95.329     394.785     647.005
  H      -96.378     393.727     646.036
  H      -94.600     393.525     645.983
  P      -95.442     391.302     647.446
  C      -96.115     389.160     648.716
  O      -96.164     390.576     648.687
  C      -95.254     388.671     649.888
  O      -93.850     388.849     649.547
  C      -95.511     389.422     651.203
  O      -95.270     388.501     652.278
  C      -94.430     390.483     651.169
  O      -94.211     391.040     652.443
  C      -93.262     389.687     650.568
  N      -92.208     390.546     650.037
  C      -90.981     390.507     650.695
  O      -90.773     389.815     651.696
  N      -90.008     391.321     650.197
  C      -90.150     392.199     649.162
  O      -89.245     392.930     648.783
  C      -91.476     392.236     648.539
  C      -92.436     391.417     648.991
  O      -94.080     390.784     647.129
  O      -96.475     391.038     646.247
  H      -94.949     391.643     652.686
  H      -96.168     390.284     645.702
  H      -89.105     391.286     650.658
  H      -91.627     392.932     647.722
  H      -93.427     391.427     648.554
  H      -92.815     389.024     651.329
  H      -94.712     391.303     650.501
  H      -96.518     389.839     651.274
  H      -95.415     387.588     650.013
  H      -95.673     388.818     647.769
  H      -97.129     388.754     648.800
  P      -96.460     387.693     652.988
  C      -96.375     385.301     653.968
  O      -95.827     386.621     654.008
  O      -97.464     387.109     652.040
  O      -97.156     388.757     653.963
  H      -98.102     388.527     654.089
  H      -95.875     384.685     654.687
  H      -96.240     384.888     652.990
  H      -97.419     385.341     654.197

 6  7  8  9  10  11  12  13  14  15  16  26  31  32  33  34  35 0
 6-311+G(2d,p)
 ****
 36  37 0
 6-311+G(2d,p)
 ****
 1  2  3  4  5  17  18  19  20  21  22  23  24  25 0
 3-21G
 ****
 27  28  29  30  38  39  40  41  42  43  44  45 0
 3-21G
 ****


