%nproc=1
%NoSave
%Mem=1900MB
#P OB98/GEN NMR

erre ene a

0 1
  C       11.382    -180.597     187.874
  O       12.209    -179.670     188.556
  H       10.618    -180.045     187.321
  H       10.892    -181.251     188.599
  H       11.972    -181.192     187.169
  P       13.586    -180.230     189.156
  C       12.365    -181.180     191.244
  O       13.386    -180.323     190.749
  C       12.543    -181.405     192.744
  O       11.591    -182.382     193.224
  C       13.926    -181.919     193.139
  O       14.862    -180.856     193.265
  C       13.617    -182.533     194.500
  O       13.491    -181.488     195.491
  C       12.248    -183.180     194.252
  N       12.547    -188.028     195.727
  C       12.584    -186.863     196.478
  N       12.724    -187.022     197.815
  N       12.490    -185.661     195.973
  C       12.373    -185.664     194.617
  C       12.336    -186.744     193.766
  C       12.422    -188.068     194.343
  O       12.379    -189.126     193.718
  N       12.210    -186.350     192.463
  C       12.194    -185.031     192.521
  N       12.300    -184.563     193.809
  O       14.583    -178.989     188.973
  O       14.118    -181.457     188.496
  H       13.114    -181.897     196.293
  H       15.159    -179.159     188.202
  H       12.634    -188.928     196.168
  H       12.106    -184.374     191.666
  H       11.609    -183.153     195.141
  H       14.401    -183.208     194.845
  H       12.825    -187.917     198.270
  H       14.287    -182.702     192.458
  H       12.753    -186.182     198.386
  H       12.320    -180.459     193.254
  H       12.424    -182.139     190.721
  H       11.393    -180.720     191.049
  P       16.306    -181.037     192.578
  C       17.390    -181.690     194.837
  O       17.405    -180.810     193.729
  O       16.431    -179.719     191.673
  O       16.473    -182.273     191.760
  H       16.396    -179.962     190.729
  H       18.171    -181.421     195.517
  H       17.542    -182.693     194.498
  H       16.445    -181.621     195.334

 6  7  8  9  10  11  12  13  14  15  26  29  33  34 0
 6-311+G(2d,p)
 ****
 36  38  39  40  41 0
 6-311+G(2d,p)
 ****
 1  2  3  4  5  16  17  18  19  20  21  22  23  24  25 0
 3-21G
 ****
 27  28  30  31  32  35  37  42  43  44  45  46  47 0
 3-21G
 ****
 48  49 0
 3-21G
 ****


