%nproc=1
%NoSave
%Mem=1900MB
#P OB98/GEN NMR

erre ene a

0 1
  C     -347.219     423.676     793.351
  O     -346.569     422.404     793.125
  P     -345.315     422.058     794.066
  C     -346.298     419.957     795.254
  O     -345.330     420.474     794.346
  C     -346.237     418.432     795.278
  O     -346.813     417.852     794.085
  C     -344.806     417.879     795.344
  O     -344.272     418.030     796.658
  C     -345.043     416.434     794.909
  O     -345.548     415.653     796.004
  C     -346.129     416.594     793.835
  N     -345.514     413.770     789.606
  C     -346.079     413.495     790.800
  N     -346.202     414.298     791.887
  C     -345.671     415.509     791.629
  C     -345.067     415.944     790.453
  C     -344.999     415.011     789.406
  N     -344.404     415.287     788.185
  N     -344.654     417.258     790.581
  C     -344.975     417.606     791.812
  N     -345.604     416.586     792.478
  O     -345.729     422.697     795.480
  O     -344.015     422.608     793.572
  H     -346.441     416.001     796.230
  H     -345.189     423.484     795.663
  H     -346.482     412.492     790.903
  H     -344.774     418.575     792.253
  H     -346.881     415.799     793.900
  H     -344.124     415.943     794.556
  H     -344.176     418.404     794.618
  H     -346.817     418.075     796.150
  H     -347.295     420.281     794.965
  H     -344.320     414.542     787.522
  H     -343.943     416.175     788.068
  H     -346.112     420.377     796.248
  P     -342.707     418.388     796.768
  C     -343.278     420.890     796.794
  O     -342.706     419.822     797.517
  O     -342.346     418.767     795.267
  O     -341.855     417.331     797.406
  H     -343.018     419.359     794.870
  H     -343.244     421.797     797.419
  H     -344.319     420.676     796.536
  H     -342.695     421.084     795.872
  H     -348.033     423.787     792.666
  H     -346.515     424.468     793.200
  H     -347.589     423.714     794.354

 3  4  5  6  7  8  9  10  11  12  22  25  29  30  31  32 0
 6-311+G(2d,p)
 ****
 33  36  37 0
 6-311+G(2d,p)
 ****
 1  2  13  14  15  16  17  18  19  20  21  23  24  26 0
 3-21G
 ****
 27  28  34  35  38  39  40  41  42  43  44  45  46  47  48 0
 3-21G
 ****


