%nproc=1
%NoSave
%Mem=1900MB
#P OB98/GEN NMR

erre ene a

0 1
  C      503.082     619.486     -75.519
  O      504.274     619.880     -74.865
  H      502.599     618.681     -74.960
  H      502.400     620.342     -75.560
  H      503.296     619.159     -76.542
  P      505.403     618.757     -74.674
  C      507.996     618.697     -74.637
  O      506.824     619.501     -74.736
  C      509.239     619.583     -74.705
  O      509.393     620.056     -76.069
  C      509.210     620.812     -73.774
  O      510.327     620.782     -72.874
  C      509.368     622.000     -74.710
  O      510.219     623.020     -74.188
  C      509.942     621.382     -75.987
  N      510.693     625.834     -78.339
  C      511.431     625.175     -77.410
  N      511.233     623.944     -76.906
  C      510.157     623.383     -77.463
  C      509.324     623.910     -78.429
  C      509.607     625.212     -78.860
  N      508.821     625.910     -79.756
  N      508.308     623.027     -78.748
  C      508.502     621.997     -77.964
  N      509.592     622.160     -77.155
  O      505.340     617.934     -76.047
  O      505.205     617.870     -73.486
  H      509.766     623.373     -73.398
  H      505.316     616.978     -75.850
  H      512.295     625.707     -77.029
  H      507.865     621.108     -77.897
  H      511.039     621.295     -75.939
  H      508.367     622.436     -74.892
  H      508.275     620.877     -73.200
  H      510.115     618.965     -74.485
  H      508.022     617.982     -75.472
  H      509.047     626.887     -79.918
  H      507.963     625.497     -80.057
  H      507.966     618.138     -73.703
  P      510.049     620.262     -71.384
  C      511.542     619.402     -69.436
  O      511.454     620.169     -70.629
  O      509.645     618.723     -71.605
  O      508.972     621.012     -70.667
  H      509.071     618.415     -70.888
  H      512.543     619.442     -69.059
  H      511.281     618.386     -69.645
  H      510.869     619.800     -68.706

 6  7  8  9  10  11  12  13  14  15  25  28  32  33  34  35 0
 6-311+G(2d,p)
 ****
 36  39  40 0
 6-311+G(2d,p)
 ****
 1  2  3  4  5  16  17  18  19  20  21  22  23  24 0
 3-21G
 ****
 26  27  29  30  31  37  38  41  42  43  44  45  46  47  48 0
 3-21G
 ****


