%nproc=1
%NoSave
%Mem=1900MB
#P OB98/GEN NMR

erre ene a

0 1
  C      -71.003      79.035     152.882
  O      -70.583      79.888     151.838
  H      -70.276      79.096     153.695
  H      -71.052      78.001     152.535
  H      -71.979      79.349     153.261
  P      -71.446      79.938     150.489
  C      -70.129      78.095     149.252
  O      -71.371      78.475     149.836
  C      -70.334      76.917     148.293
  O      -69.038      76.555     147.755
  C      -70.928      75.686     148.991
  O      -72.090      75.183     148.338
  C      -69.729      74.757     149.137
  O      -70.058      73.385     149.208
  C      -68.843      75.142     147.948
  N      -67.427      74.840     148.145
  C      -67.071      73.500     148.273
  O      -67.852      72.554     148.222
  N      -65.735      73.259     148.465
  C      -64.751      74.199     148.552
  O      -63.571      73.921     148.722
  C      -65.193      75.597     148.437
  C      -66.489      75.849     148.243
  O      -71.117      81.055     149.557
  O      -72.960      80.025     151.001
  H      -69.214      72.887     149.252
  H      -73.294      80.934     150.876
  H      -65.462      72.293     148.544
  H      -64.441      76.370     148.515
  H      -66.849      76.869     148.151
  H      -69.168      74.627     147.043
  H      -69.205      75.010     150.066
  H      -71.296      75.946     149.991
  H      -70.958      77.248     147.455
  H      -69.450      77.811     150.062
  H      -69.702      78.945     148.710
  P      -73.592      75.492     148.772
  C      -74.069      73.388     150.276
  O      -73.871      74.793     150.182
  O      -74.628      75.308     147.713
  O      -73.565      77.060     149.152
  H      -74.448      77.412     148.925
  H      -74.240      73.119     151.298
  H      -73.199      72.880     149.914
  H      -74.917      73.107     149.687

 6  7  8  9  10  11  12  13  14  15  16  26  31  32  33  34  35 0
 6-311+G(2d,p)
 ****
 36  37 0
 6-311+G(2d,p)
 ****
 1  2  3  4  5  17  18  19  20  21  22  23  24  25 0
 3-21G
 ****
 27  28  29  30  38  39  40  41  42  43  44  45 0
 3-21G
 ****


