%nproc=1
%NoSave
%Mem=1900MB
#P OB98/GEN NMR

erre ene a

0 1
  C      194.422    -530.488    -353.998
  O      194.688    -531.753    -353.403
  P      193.648    -532.945    -353.688
  C      195.067    -534.853    -354.724
  O      194.229    -533.731    -354.958
  C      195.924    -535.153    -355.952
  O      196.642    -533.971    -356.362
  C      196.990    -536.223    -355.743
  O      196.456    -537.538    -355.856
  C      197.926    -535.933    -356.899
  O      197.393    -536.480    -358.121
  C      197.898    -534.395    -356.958
  N      202.257    -531.767    -357.453
  C      201.423    -532.306    -358.367
  N      200.285    -532.997    -358.156
  C      200.061    -533.155    -356.835
  C      200.849    -532.697    -355.788
  C      201.993    -531.962    -356.135
  N      202.833    -531.396    -355.203
  N      200.295    -533.055    -354.574
  C      199.197    -533.710    -354.885
  N      199.003    -533.785    -356.240
  O      192.373    -532.174    -354.289
  O      193.294    -533.775    -352.505
  H      196.988    -537.335    -357.894
  H      191.569    -532.710    -354.160
  H      201.690    -532.140    -359.401
  H      198.504    -534.126    -354.168
  H      197.921    -534.014    -357.983
  H      198.921    -536.366    -356.764
  H      197.517    -536.076    -354.791
  H      195.247    -535.438    -356.773
  H      194.451    -535.725    -354.500
  H      203.518    -530.733    -355.528
  H      202.517    -531.368    -354.237
  H      195.711    -534.646    -353.854
  P      196.950    -538.615    -354.780
  C      194.533    -539.530    -354.546
  O      195.656    -538.965    -353.896
  O      197.865    -537.745    -353.790
  O      197.683    -539.774    -355.363
  H      198.531    -538.318    -353.354
  H      193.882    -539.980    -353.783
  H      194.830    -540.307    -355.246
  H      193.965    -538.757    -355.066
  H      195.191    -529.796    -353.724
  H      193.476    -530.124    -353.655
  H      194.399    -530.592    -355.063

 3  4  5  6  7  8  9  10  11  12  22  25  29  30  31  32 0
 6-311+G(2d,p)
 ****
 33  36  37 0
 6-311+G(2d,p)
 ****
 1  2  13  14  15  16  17  18  19  20  21  23  24  26 0
 3-21G
 ****
 27  28  34  35  38  39  40  41  42  43  44  45  46  47  48 0
 3-21G
 ****


