%nproc=1
%NoSave
%Mem=1900MB
#P OB98/GEN NMR

erre ene a

0 1
  C      -69.143    -204.705    -433.623
  O      -69.369    -203.659    -432.700
  H      -68.071    -204.876    -433.743
  H      -69.606    -205.620    -433.243
  H      -69.591    -204.457    -434.590
  P      -68.734    -202.229    -433.054
  C      -67.361    -201.937    -430.871
  O      -68.454    -201.481    -431.658
  C      -67.828    -202.224    -429.443
  O      -68.456    -203.532    -429.425
  C      -66.709    -202.217    -428.391
  O      -66.994    -201.254    -427.371
  C      -66.761    -203.603    -427.770
  O      -66.571    -203.594    -426.355
  C      -68.147    -204.109    -428.149
  N      -67.607    -208.373    -425.415
  C      -67.895    -207.107    -425.046
  N      -68.131    -206.038    -425.830
  C      -68.071    -206.380    -427.129
  C      -67.807    -207.634    -427.658
  C      -67.547    -208.662    -426.734
  N      -67.195    -209.937    -427.110
  N      -67.819    -207.595    -429.040
  C      -68.040    -206.331    -429.339
  N      -68.181    -205.556    -428.218
  O      -69.969    -201.422    -433.674
  O      -67.573    -202.269    -433.992
  H      -66.605    -204.521    -426.062
  H      -69.695    -200.991    -434.505
  H      -67.937    -206.926    -423.972
  H      -68.063    -205.915    -430.341
  H      -68.916    -203.781    -427.435
  H      -65.976    -204.224    -428.219
  H      -65.719    -202.013    -428.820
  H      -68.601    -201.489    -429.184
  H      -66.582    -201.166    -430.840
  H      -66.913    -210.579    -426.386
  H      -67.043    -210.131    -428.091
  H      -66.942    -202.839    -431.334
  P      -65.736    -200.671    -426.552
  C      -66.641    -201.041    -424.138
  O      -66.294    -200.107    -425.154
  O      -65.364    -199.341    -427.361
  O      -64.586    -201.616    -426.461
  H      -64.417    -199.132    -427.247
  H      -66.993    -200.515    -423.275
  H      -65.780    -201.620    -423.876
  H      -67.411    -201.691    -424.499

 6  7  8  9  10  11  12  13  14  15  25  28  32  33  34  35 0
 6-311+G(2d,p)
 ****
 36  39  40 0
 6-311+G(2d,p)
 ****
 1  2  3  4  5  16  17  18  19  20  21  22  23  24 0
 3-21G
 ****
 26  27  29  30  31  37  38  41  42  43  44  45  46  47  48 0
 3-21G
 ****


