%nproc=1
%NoSave
%Mem=1900MB
#P OB98/GEN NMR

erre ene a

0 1
  C      137.051      35.409     369.803
  O      137.731      36.660     369.721
  P      137.852      37.717     370.908
  C      140.410      38.178     370.524
  O      139.087      38.687     370.605
  C      141.425      39.314     370.310
  O      141.354      39.747     368.918
  C      141.127      40.538     371.180
  O      142.290      41.125     371.756
  C      140.293      41.414     370.260
  O      140.255      42.776     370.654
  C      140.917      41.125     368.898
  N      140.301      42.948     364.169
  C      141.394      43.043     365.009
  N      142.459      43.726     364.541
  N      141.432      42.529     366.208
  C      140.274      41.943     366.583
  C      139.120      41.798     365.849
  C      139.105      42.326     364.501
  O      138.172      42.251     363.708
  N      138.153      41.135     366.560
  C      138.714      40.897     367.729
  N      140.007      41.361     367.789
  O      137.755      37.162     372.290
  O      136.579      38.684     370.686
  H      141.158      43.132     370.584
  H      136.305      38.983     371.578
  H      140.336      43.344     363.245
  H      138.239      40.384     368.557
  H      141.790      41.750     368.703
  H      139.262      41.043     370.296
  H      142.452      44.249     363.678
  H      140.524      40.258     372.052
  H      143.162      43.980     365.236
  H      142.433      38.924     370.492
  H      140.423      37.502     369.660
  H      140.656      37.590     371.406
  P      142.782      41.079     373.274
  C      145.250      40.474     372.939
  O      144.330      41.480     373.319
  O      142.804      39.529     373.658
  O      141.921      41.838     374.234
  H      142.177      39.360     374.391
  H      146.251      40.774     373.262
  H      145.247      40.367     371.852
  H      144.997      39.520     373.406
  H      137.125      34.900     368.865
  H      136.021      35.578     370.036
  H      137.497      34.810     370.570

 3  4  5  6  7  8  9  10  11  12  23  26  30  31 0
 6-311+G(2d,p)
 ****
 33  35  36  37  38 0
 6-311+G(2d,p)
 ****
 1  2  13  14  15  16  17  18  19  20  21  22  24  25 0
 3-21G
 ****
 27  28  29  32  34  39  40  41  42  43  44  45  46  47  48  49 0
 3-21G
 ****


