%nproc=1
%NoSave
%Mem=1900MB
#P OB98/GEN NMR

erre ene a

0 1
  C     -157.395    -333.717      92.004
  O     -156.213    -333.447      92.768
  P     -155.051    -332.482      92.225
  C     -155.374    -330.059      93.021
  O     -154.742    -331.309      93.287
  C     -154.916    -328.937      93.966
  O     -155.609    -329.013      95.243
  C     -153.411    -328.932      94.279
  O     -153.056    -327.558      94.480
  C     -153.356    -329.699      95.594
  O     -152.161    -329.484      96.329
  C     -154.618    -329.166      96.277
  N     -154.243    -330.385     101.245
  C     -153.769    -329.330     100.537
  N     -153.948    -329.051      99.231
  C     -154.722    -329.979      98.639
  C     -155.285    -331.110      99.233
  C     -155.001    -331.303     100.603
  N     -155.435    -332.401     101.312
  N     -155.996    -331.848      98.302
  C     -155.864    -331.184      97.168
  N     -155.108    -330.044      97.325
  O     -155.265    -331.993      90.826
  O     -153.727    -333.388      92.282
  H     -152.223    -329.993      97.164
  H     -153.229    -333.286      91.449
  H     -153.176    -328.615     101.105
  H     -156.264    -331.486      96.215
  H     -154.435    -328.174      96.723
  H     -153.437    -330.777      95.385
  H     -152.798    -329.380      93.500
  H     -155.213    -327.980      93.509
  H     -156.465    -330.190      93.114
  H     -155.112    -332.502     102.259
  H     -155.901    -333.157     100.820
  H     -155.167    -329.771      91.984
  P     -152.056    -326.794      93.488
  C     -153.136    -327.055      91.175
  O     -152.958    -326.200      92.299
  O     -150.872    -327.592      93.047
  O     -151.612    -325.483      94.299
  H     -150.786    -325.123      93.909
  H     -152.226    -327.058      90.566
  H     -153.972    -326.682      90.577
  H     -153.361    -328.076      91.497
  H     -158.030    -334.381      92.552
  H     -157.123    -334.171      91.074
  H     -157.914    -332.801      91.815

 3  4  5  6  7  8  9  10  11  12  22  25  29  30  31  32 0
 6-311+G(2d,p)
 ****
 33  36  37 0
 6-311+G(2d,p)
 ****
 1  2  13  14  15  16  17  18  19  20  21  23  24  26 0
 3-21G
 ****
 27  28  34  35  38  39  40  41  42  43  44  45  46  47  48 0
 3-21G
 ****


