%nproc=1
%NoSave
%Mem=1900MB
#P OB98/GEN NMR

erre ene a

0 1
  C     -446.977     232.729    -590.652
  O     -446.003     231.703    -590.702
  H     -447.700     232.571    -591.455
  H     -446.514     233.711    -590.793
  H     -447.501     232.702    -589.695
  P     -444.743     231.798    -589.720
  C     -443.691     233.504    -591.358
  O     -443.524     232.288    -590.635
  C     -442.451     234.377    -591.198
  O     -442.313     234.813    -589.830
  C     -441.155     233.652    -591.533
  O     -440.999     233.517    -592.927
  C     -440.140     234.538    -590.835
  O     -439.838     235.702    -591.616
  C     -440.898     234.918    -589.540
  N     -440.528     234.088    -588.405
  C     -439.670     234.676    -587.466
  O     -439.274     235.828    -587.627
  N     -439.270     233.923    -586.392
  C     -439.696     232.706    -586.248
  N     -439.260     232.018    -585.161
  C     -440.613     232.056    -587.204
  C     -440.985     232.798    -588.248
  O     -444.446     230.593    -588.881
  O     -445.063     233.089    -588.827
  H     -440.643     236.256    -591.598
  H     -445.570     232.834    -588.028
  H     -440.952     231.048    -587.039
  H     -441.659     232.397    -589.002
  H     -440.709     235.973    -589.283
  H     -439.206     234.011    -590.654
  H     -441.139     232.669    -591.045
  H     -442.575     235.273    -591.822
  H     -438.621     232.502    -584.537
  H     -444.564     234.011    -590.938
  H     -439.596     231.105    -584.900
  H     -443.878     233.304    -592.415
  P     -441.389     232.154    -593.666
  C     -439.356     230.715    -593.005
  O     -439.994     231.450    -594.045
  O     -442.358     232.294    -594.793
  O     -441.938     231.235    -592.471
  H     -442.836     231.525    -592.180
  H     -438.443     230.295    -593.373
  H     -440.003     229.929    -592.675
  H     -439.143     231.369    -592.185

 6  7  8  9  10  11  12  13  14  15  16  26  30  31  32  33  35 0
 6-311+G(2d,p)
 ****
 37  38 0
 6-311+G(2d,p)
 ****
 1  2  3  4  5  17  18  19  20  21  22  23  24  25 0
 3-21G
 ****
 27  28  29  34  36  39  40  41  42  43  44  45  46 0
 3-21G
 ****


