%nproc=1
%NoSave
%Mem=1900MB
#P OB98/GEN NMR

erre ene a

0 1
  C      627.175     442.437     288.031
  O      626.751     441.257     287.360
  P      625.903     441.438     286.005
  C      628.086     441.500     284.596
  O      626.891     442.173     284.975
  C      628.099     441.229     283.094
  O      627.106     440.237     282.762
  C      627.777     442.440     282.231
  O      628.907     443.274     282.035
  C      627.386     441.764     280.929
  O      628.565     441.366     280.206
  C      626.621     440.530     281.423
  N      622.372     440.753     278.588
  C      623.672     440.622     278.249
  N      624.747     440.582     279.064
  C      624.380     440.735     280.346
  C      623.097     440.915     280.840
  C      622.054     440.909     279.898
  N      620.726     441.018     280.244
  N      623.117     441.036     282.211
  C      624.385     440.923     282.544
  N      625.186     440.725     281.457
  O      624.853     442.580     286.387
  O      625.238     440.200     285.509
  H      628.268     441.034     279.338
  H      624.070     442.525     285.804
  H      623.874     440.525     277.188
  H      624.766     440.962     283.558
  H      626.824     439.646     280.809
  H      626.811     442.422     280.265
  H      626.925     442.997     282.632
  H      629.083     440.818     282.832
  H      628.149     440.548     285.131
  H      620.040     440.821     279.537
  H      620.487     440.932     281.224
  H      628.944     442.113     284.879
  P      628.629     444.753     281.464
  C      629.688     445.931     283.525
  O      628.516     445.687     282.761
  O      627.126     444.657     280.926
  O      629.589     445.189     280.406
  H      626.979     445.313     280.224
  H      629.509     446.806     284.159
  H      630.543     446.129     282.885
  H      629.894     445.071     284.167
  H      627.724     442.170     288.910
  H      626.319     443.017     288.308
  H      627.800     443.012     287.380

 3  4  5  6  7  8  9  10  11  12  22  25  29  30  31  32 0
 6-311+G(2d,p)
 ****
 33  36  37 0
 6-311+G(2d,p)
 ****
 1  2  13  14  15  16  17  18  19  20  21  23  24  26 0
 3-21G
 ****
 27  28  34  35  38  39  40  41  42  43  44  45  46  47  48 0
 3-21G
 ****


