%nproc=1
%NoSave
%Mem=1900MB
#P OB98/GEN NMR

erre ene a

0 1
  C       -2.275     -10.182      23.390
  O       -3.038     -10.421      22.221
  P       -3.285     -11.909      21.692
  C       -4.409     -12.906      19.538
  O       -4.299     -11.845      20.462
  C       -5.697     -12.725      18.725
  O       -6.838     -13.143      19.503
  C       -5.908     -11.268      18.323
  O       -5.395     -11.029      17.023
  C       -7.414     -11.112      18.418
  O       -8.048     -11.622      17.230
  C       -7.744     -12.014      19.631
  N       -7.580     -11.448      20.983
  C       -8.066     -10.174      21.260
  O       -8.665      -9.480      20.444
  N       -7.816      -9.703      22.525
  C       -7.183     -10.391      23.520
  O       -6.755      -9.882      24.550
  C       -6.942     -11.811      23.253
  C       -7.126     -12.262      22.012
  O       -4.161     -12.566      22.858
  O       -2.053     -12.701      21.403
  H       -9.008     -11.516      17.350
  H       -3.600     -13.101      23.450
  H       -8.042      -8.727      22.688
  H       -6.571     -12.430      24.060
  H       -6.917     -13.303      21.781
  H       -8.768     -12.400      19.565
  H       -7.698     -10.064      18.488
  H       -5.440     -10.600      19.058
  H       -5.646     -13.363      17.834
  H       -4.422     -13.864      20.068
  H       -3.540     -12.916      18.873
  P       -5.255      -9.525      16.492
  C       -4.102      -8.427      14.484
  O       -4.503      -9.644      15.081
  O       -4.658      -8.554      17.457
  O       -6.759      -9.131      16.105
  H       -7.167      -8.622      16.835
  H       -3.454      -8.650      13.634
  H       -3.552      -7.810      15.201
  H       -4.981      -7.885      14.125
  H       -2.226      -9.129      23.575
  H       -1.286     -10.566      23.255
  H       -2.737     -10.670      24.223

 3  4  5  6  7  8  9  10  11  12  13  23  28  29  30  31  32 0
 6-311+G(2d,p)
 ****
 33  34 0
 6-311+G(2d,p)
 ****
 1  2  14  15  16  17  18  19  20  21  22  24  25  26  27 0
 3-21G
 ****
 35  36  37  38  39  40  41  42  43  44  45 0
 3-21G
 ****


