%nproc=1
%NoSave
%Mem=1900MB
#P OB98/GEN NMR

erre ene a

0 1
  C     2118.086     246.826    1311.456
  O     2116.859     246.760    1312.172
  P     2116.702     245.643    1313.305
  C     2117.199     247.314    1315.326
  O     2117.601     246.164    1314.577
  C     2116.799     246.894    1316.717
  O     2117.869     246.146    1317.352
  C     2116.515     248.090    1317.665
  O     2115.225     248.668    1317.426
  C     2116.644     247.419    1319.030
  O     2115.429     246.653    1319.343
  C     2117.794     246.399    1318.779
  N     2119.070     246.875    1319.313
  C     2119.258     246.860    1320.689
  O     2118.305     246.486    1321.429
  N     2120.452     247.312    1321.173
  C     2121.473     247.816    1320.406
  O     2122.488     248.232    1320.915
  C     2121.235     247.841    1318.984
  C     2120.091     247.385    1318.440
  O     2117.579     244.461    1312.667
  O     2115.275     245.320    1313.623
  H     2118.281     244.776    1312.058
  H     2114.702     247.308    1319.426
  H     2120.567     247.293    1322.151
  H     2122.036     248.221    1318.313
  H     2119.901     247.374    1317.425
  H     2117.595     245.401    1319.240
  H     2116.846     248.086    1319.828
  H     2117.318     248.839    1317.566
  H     2115.907     246.226    1316.672
  H     2116.345     247.822    1314.820
  H     2118.041     248.023    1315.359
  P     2115.110     250.239    1317.735
  C     2114.793     250.899    1315.192
  O     2115.582     251.007    1316.334
  O     2116.317     250.464    1318.779
  O     2113.715     250.658    1318.220
  H     2117.109     249.992    1318.521
  H     2115.108     251.752    1314.546
  H     2113.716     251.013    1315.425
  H     2114.975     249.974    1314.670
  H     2118.038     247.618    1310.738
  H     2118.255     245.897    1310.952
  H     2118.888     247.013    1312.139

 3  4  5  6  7  8  9  10  11  12  13  24  28  29  30  31  32 0
 6-311+G(2d,p)
 ****
 33  34 0
 6-311+G(2d,p)
 ****
 1  2  14  15  16  17  18  19  20  21  22  23  25  26  27 0
 3-21G
 ****
 35  36  37  38  39  40  41  42  43  44  45 0
 3-21G
 ****


