%nproc=1
%NoSave
%Mem=1900MB
#P OB98/GEN NMR

erre ene a

0 1
  C      164.185    1255.920     142.764
  O      163.581    1257.150     143.127
  H      165.137    1256.145     142.263
  H      163.548    1255.378     142.063
  H      164.390    1255.313     143.651
  P      162.247    1257.111     144.020
  C      163.567    1256.521     146.158
  O      162.681    1257.438     145.522
  C      164.473    1257.276     147.145
  O      165.416    1258.103     146.424
  C      163.715    1258.215     148.072
  O      163.064    1257.504     149.110
  C      164.849    1259.125     148.541
  O      165.612    1258.505     149.589
  C      165.693    1259.263     147.255
  N      165.453    1260.503     146.531
  C      166.120    1261.635     146.984
  O      166.864    1261.618     147.963
  N      165.881    1262.795     146.292
  C      164.970    1262.948     145.276
  O      164.716    1264.037     144.757
  C      164.267    1261.723     144.872
  C      164.550    1260.581     145.492
  O      161.392    1255.893     143.853
  O      161.461    1258.437     143.569
  H      166.367    1259.087     149.765
  H      160.714    1258.188     142.985
  H      166.348    1263.618     146.621
  H      163.549    1261.817     144.047
  H      164.031    1259.664     145.199
  H      166.770    1259.211     147.498
  H      164.480    1260.081     148.924
  H      162.995    1258.820     147.503
  H      165.046    1256.532     147.726
  H      164.185    1256.050     145.391
  H      162.982    1255.762     146.681
  P      161.607    1257.959     149.594
  C      160.355    1256.122     148.291
  O      160.665    1256.664     149.580
  O      161.042    1259.164     148.891
  O      161.801    1258.243     151.151
  H      161.579    1259.175     151.342
  H      159.724    1255.266     148.407
  H      161.260    1255.834     147.798
  H      159.849    1256.861     147.705

 6  7  8  9  10  11  12  13  14  15  16  26  31  32  33  34  35 0
 6-311+G(2d,p)
 ****
 36  37 0
 6-311+G(2d,p)
 ****
 1  2  3  4  5  17  18  19  20  21  22  23  24  25 0
 3-21G
 ****
 27  28  29  30  38  39  40  41  42  43  44  45 0
 3-21G
 ****


