%nproc=1
%NoSave
%Mem=1900MB
#P OB98/GEN NMR

erre ene a

0 1
  C     -592.749      72.248     110.838
  O     -591.646      71.901     111.654
  H     -593.193      73.173     111.224
  H     -593.501      71.457     110.867
  H     -592.422      72.419     109.806
  P     -590.848      70.560     111.258
  C     -588.587      71.716     111.813
  O     -589.455      70.615     112.071
  C     -587.501      71.789     112.889
  O     -588.104      72.227     114.144
  C     -586.796      70.455     113.162
  O     -585.414      70.699     113.413
  C     -587.454      69.973     114.448
  O     -586.629      69.053     115.160
  C     -587.678      71.304     115.159
  N     -588.308      70.090     120.004
  C     -587.159      70.140     119.235
  N     -585.989      69.822     119.846
  N     -587.151      70.483     117.970
  C     -588.380      70.804     117.500
  C     -589.587      70.778     118.157
  C     -589.585      70.386     119.546
  O     -590.565      70.291     120.272
  N     -590.620      71.142     117.310
  C     -590.025      71.384     116.153
  N     -588.669      71.196     116.217
  O     -590.402      70.825     109.742
  O     -591.612      69.289     111.409
  H     -587.028      68.906     116.039
  H     -590.344      69.982     109.247
  H     -588.250      69.812     120.974
  H     -590.533      71.691     115.245
  H     -586.759      71.695     115.619
  H     -588.408      69.484     114.215
  H     -585.914      69.583     120.828
  H     -586.893      69.732     112.347
  H     -585.137      69.866     119.302
  H     -586.780      72.562     112.598
  H     -589.176      72.640     111.816
  H     -588.123      71.581     110.831
  P     -584.341      69.932     112.498
  C     -582.894      72.021     111.944
  O     -582.945      70.742     112.542
  O     -584.874      70.207     111.015
  O     -584.240      68.468     112.779
  H     -585.250      69.391     110.638
  H     -581.910      72.427     112.054
  H     -583.602      72.666     112.421
  H     -583.131      71.938     110.904

 6  7  8  9  10  11  12  13  14  15  26  29  33  34 0
 6-311+G(2d,p)
 ****
 36  38  39  40  41 0
 6-311+G(2d,p)
 ****
 1  2  3  4  5  16  17  18  19  20  21  22  23  24  25 0
 3-21G
 ****
 27  28  30  31  32  35  37  42  43  44  45  46  47 0
 3-21G
 ****
 48  49 0
 3-21G
 ****


