%nproc=1
%NoSave
%Mem=1900MB
#P OB98/GEN NMR

erre ene a

0 1
  C      -56.405      92.684      44.731
  O      -57.465      93.116      43.900
  H      -56.745      91.821      45.309
  H      -56.114      93.477      45.425
  H      -55.546      92.382      44.127
  P      -57.233      94.401      42.974
  C      -56.934      96.934      43.383
  O      -57.086      95.649      43.972
  C      -56.464      97.943      44.427
  O      -55.281      97.463      45.093
  C      -56.110      99.316      43.858
  O      -57.278     100.094      43.664
  C      -55.227      99.857      44.970
  O      -56.047     100.290      46.073
  C      -54.425      98.605      45.373
  N      -49.520      99.889      45.165
  C      -50.532     100.385      45.963
  N      -50.196     101.387      46.804
  N      -51.764      99.949      45.932
  C      -51.970      98.995      44.995
  C      -51.054      98.435      44.134
  C      -49.679      98.881      44.226
  O      -48.747      98.449      43.553
  N      -51.651      97.563      43.260
  C      -52.918      97.556      43.628
  N      -53.167      98.417      44.673
  O      -58.235      94.614      41.880
  O      -55.750      94.215      42.404
  H      -55.445     100.567      46.787
  H      -55.759      93.751      41.546
  H      -48.591     100.270      45.228
  H      -53.693      96.947      43.179
  H      -54.196      98.591      46.444
  H      -54.628     100.714      44.658
  H      -49.307     101.864      46.768
  H      -55.515      99.230      42.943
  H      -50.937     101.802      47.354
  H      -57.250      98.026      45.189
  H      -57.907      97.228      42.978
  H      -56.212      96.894      42.561
  P      -57.413     101.114      42.430
  C      -56.279     103.354      41.806
  O      -56.414     102.322      42.768
  O      -58.807     101.529      42.111
  O      -56.656     100.383      41.230
  H      -57.235      99.748      40.739
  H      -55.586     104.086      42.164
  H      -57.231     103.814      41.641
  H      -55.919     102.940      40.887

 6  7  8  9  10  11  12  13  14  15  26  29  33  34 0
 6-311+G(2d,p)
 ****
 36  38  39  40  41 0
 6-311+G(2d,p)
 ****
 1  2  3  4  5  16  17  18  19  20  21  22  23  24  25 0
 3-21G
 ****
 27  28  30  31  32  35  37  42  43  44  45  46  47 0
 3-21G
 ****
 48  49 0
 3-21G
 ****


