%nproc=1
%NoSave
%Mem=1900MB
#P OB98/GEN NMR

erre ene a

0 1
  C       81.776    -115.145    -454.940
  O       81.180    -116.322    -454.439
  H       81.439    -114.296    -454.342
  H       81.464    -114.991    -455.975
  H       82.869    -115.203    -454.886
  P       81.822    -117.720    -454.890
  C       83.740    -117.725    -453.141
  O       82.541    -118.337    -453.592
  C       84.723    -118.783    -452.635
  O       86.064    -118.204    -452.625
  C       84.420    -119.291    -451.216
  O       84.736    -120.688    -451.149
  C       85.429    -118.540    -450.366
  O       85.708    -119.203    -449.139
  C       86.617    -118.480    -451.325
  N       89.250    -116.840    -447.378
  C       88.509    -117.994    -447.546
  N       88.402    -118.817    -446.481
  N       87.921    -118.315    -448.670
  C       88.125    -117.417    -449.664
  C       88.830    -116.237    -449.620
  C       89.464    -115.884    -448.368
  O       90.116    -114.867    -448.151
  N       88.751    -115.576    -450.819
  C       87.980    -116.343    -451.576
  N       87.576    -117.471    -450.914
  O       83.046    -117.260    -455.817
  O       80.900    -118.646    -455.611
  H       86.113    -120.071    -449.347
  H       82.770    -117.257    -456.751
  H       89.670    -116.631    -446.491
  H       87.672    -116.120    -452.587
  H       87.160    -119.435    -451.377
  H       85.054    -117.534    -450.142
  H       88.851    -118.650    -445.594
  H       83.387    -119.131    -450.897
  H       87.894    -119.683    -446.602
  H       84.741    -119.615    -453.351
  H       83.506    -117.036    -452.324
  H       84.185    -117.154    -453.964
  P       83.519    -121.734    -451.040
  C       82.762    -121.889    -453.521
  O       83.399    -122.529    -452.426
  O       82.232    -120.783    -451.043
  O       83.563    -122.584    -449.814
  H       81.535    -121.164    -450.479
  H       82.762    -122.545    -454.366
  H       83.290    -120.991    -453.766
  H       81.754    -121.648    -453.256

 6  7  8  9  10  11  12  13  14  15  26  29  33  34 0
 6-311+G(2d,p)
 ****
 36  38  39  40  41 0
 6-311+G(2d,p)
 ****
 1  2  3  4  5  16  17  18  19  20  21  22  23  24  25 0
 3-21G
 ****
 27  28  30  31  32  35  37  42  43  44  45  46  47 0
 3-21G
 ****
 48  49 0
 3-21G
 ****


