%nproc=1
%NoSave
%Mem=1900MB
#P OB98/GEN NMR

erre ene a

0 1
  C      -63.387     128.883    -156.210
  O      -63.288     128.879    -154.797
  P      -63.809     127.592    -153.995
  C      -66.194     126.527    -153.736
  O      -65.410     127.678    -153.987
  C      -67.683     126.890    -153.727
  O      -68.060     127.362    -155.051
  C      -68.619     125.726    -153.372
  O      -69.716     126.274    -152.632
  C      -69.085     125.241    -154.734
  O      -70.302     124.517    -154.671
  C      -69.179     126.570    -155.493
  N      -69.152     126.413    -156.948
  C      -70.254     126.855    -157.671
  O      -71.255     127.354    -157.158
  N      -70.182     126.685    -159.029
  C      -69.175     126.066    -159.711
  O      -69.172     125.922    -160.927
  C      -68.060     125.573    -158.889
  C      -68.095     125.775    -157.571
  O      -63.390     127.971    -152.498
  O      -63.250     126.306    -154.500
  H      -63.472     128.922    -152.310
  H      -70.135     123.684    -154.190
  H      -70.955     127.032    -159.578
  H      -67.247     125.064    -159.393
  H      -67.286     125.420    -156.944
  H      -70.089     127.105    -155.199
  H      -68.320     124.585    -155.168
  H      -68.120     124.953    -152.782
  H      -67.829     127.725    -153.030
  H      -65.926     126.109    -152.763
  H      -65.983     125.770    -154.498
  P      -70.008     125.688    -151.161
  C      -71.140     123.479    -150.333
  O      -70.403     124.146    -151.332
  O      -71.421     126.387    -150.854
  O      -68.969     126.007    -150.138
  H      -72.052     126.299    -151.584
  H      -71.589     122.581    -150.766
  H      -71.940     124.109    -149.936
  H      -70.473     123.181    -149.522
  H      -63.000     129.805    -156.592
  H      -64.413     128.781    -156.496
  H      -62.823     128.066    -156.609

 3  4  5  6  7  8  9  10  11  12  13  24  28  29  30  31  32 0
 6-311+G(2d,p)
 ****
 33  34 0
 6-311+G(2d,p)
 ****
 1  2  14  15  16  17  18  19  20  21  22  23  25  26  27 0
 3-21G
 ****
 35  36  37  38  39  40  41  42  43  44  45 0
 3-21G
 ****


