%nproc=1
%NoSave
%Mem=1900MB
#P OB98/GEN NMR

erre ene a

0 1
  C      115.578      43.007      24.352
  O      116.933      42.926      24.775
  P      117.803      44.274      24.793
  C      117.412      46.699      25.625
  O      116.823      45.457      25.263
  C      116.466      47.864      25.334
  O      116.448      48.113      23.902
  C      115.016      47.631      25.771
  O      114.481      48.901      26.166
  C      114.339      47.185      24.488
  O      112.926      47.366      24.532
  C      115.070      48.062      23.474
  N      112.029      47.413      19.417
  C      111.820      48.013      20.609
  N      112.680      48.147      21.639
  C      113.863      47.578      21.347
  C      114.210      46.901      20.190
  C      113.229      46.830      19.185
  N      113.441      46.229      17.967
  N      115.504      46.433      20.272
  C      115.932      46.818      21.456
  N      114.984      47.533      22.131
  O      118.026      44.568      23.236
  O      119.100      44.183      25.521
  H      112.553      47.075      23.678
  H      118.967      44.441      23.005
  H      110.835      48.449      20.751
  H      116.909      46.605      21.869
  H      114.683      49.090      23.461
  H      114.540      46.123      24.314
  H      114.905      46.903      26.581
  H      116.871      48.764      25.812
  H      118.326      46.836      25.040
  H      112.741      46.339      17.252
  H      114.387      45.961      17.713
  H      117.677      46.683      26.686
  P      113.255      48.884      27.198
  C      113.010      48.059      29.645
  O      113.685      47.929      28.407
  O      112.133      48.042      26.426
  O      112.760      50.241      27.580
  H      111.246      48.317      26.724
  H      112.951      47.076      30.119
  H      111.997      48.453      29.518
  H      113.577      48.733      30.293
  H      115.133      42.035      24.394
  H      115.539      43.374      23.348
  H      115.042      43.673      24.996

 3  4  5  6  7  8  9  10  11  12  22  25  29  30  31  32 0
 6-311+G(2d,p)
 ****
 33  36  37 0
 6-311+G(2d,p)
 ****
 1  2  13  14  15  16  17  18  19  20  21  23  24  26 0
 3-21G
 ****
 27  28  34  35  38  39  40  41  42  43  44  45  46  47  48 0
 3-21G
 ****


