%nproc=1
%NoSave
%Mem=1900MB
#P OB98/GEN NMR

erre ene a

0 1
  C      745.776    -596.709    -255.602
  O      745.947    -597.451    -256.795
  H      746.750    -596.618    -255.108
  H      745.089    -597.225    -254.930
  H      745.400    -595.710    -255.831
  P      744.623    -597.733    -257.656
  C      743.113    -596.249    -259.128
  O      744.360    -596.362    -258.445
  C      743.152    -595.091    -260.120
  O      743.351    -593.850    -259.398
  C      744.286    -595.218    -261.149
  O      743.832    -594.753    -262.421
  C      745.350    -594.265    -260.620
  O      746.207    -593.790    -261.646
  C      744.497    -593.190    -259.955
  N      747.120    -588.940    -258.865
  C      746.386    -589.311    -259.942
  N      745.699    -590.445    -260.138
  C      745.793    -591.255    -259.068
  C      746.506    -591.027    -257.903
  C      747.203    -589.799    -257.823
  N      747.976    -589.441    -256.739
  N      746.384    -592.103    -257.047
  C      745.607    -592.956    -257.673
  N      745.231    -592.494    -258.904
  O      743.457    -598.274    -256.897
  O      745.185    -598.698    -258.813
  H      746.689    -594.555    -262.040
  H      746.031    -598.369    -259.156
  H      746.345    -588.579    -260.748
  H      745.301    -593.921    -257.297
  H      744.160    -592.428    -260.666
  H      745.966    -594.785    -259.878
  H      744.662    -596.236    -261.239
  H      742.183    -595.017    -260.625
  H      742.309    -596.069    -258.406
  H      748.430    -588.542    -256.751
  H      748.026    -590.053    -255.931
  H      742.916    -597.194    -259.637
  P      743.418    -595.844    -263.527
  C      742.214    -598.094    -263.133
  O      742.163    -596.674    -262.972
  O      744.528    -596.659    -264.085
  O      742.748    -594.937    -264.656
  H      742.981    -595.297    -265.532
  H      741.326    -598.531    -262.726
  H      743.070    -598.481    -262.620
  H      742.284    -598.333    -264.174

 6  7  8  9  10  11  12  13  14  15  25  28  32  33  34  35 0
 6-311+G(2d,p)
 ****
 36  39  40 0
 6-311+G(2d,p)
 ****
 1  2  3  4  5  16  17  18  19  20  21  22  23  24 0
 3-21G
 ****
 26  27  29  30  31  37  38  41  42  43  44  45  46  47 0
 3-21G
 ****
 48 0
 3-21G
 ****


