%nproc=1
%NoSave
%Mem=1900MB
#P OB98/GEN NMR

erre ene a

0 1
  C      326.344      80.506    -523.315
  O      325.437      80.172    -524.352
  H      327.140      79.756    -523.265
  H      326.789      81.481    -523.538
  H      325.825      80.567    -522.354
  P      324.543      78.858    -524.135
  C      324.714      77.908    -526.558
  O      323.895      78.531    -525.570
  C      324.329      78.395    -527.954
  O      322.990      77.914    -528.266
  C      324.314      79.922    -528.088
  O      324.825      80.275    -529.381
  C      322.840      80.278    -528.000
  O      322.541      81.504    -528.644
  C      322.201      79.053    -528.662
  N      317.323      79.929    -529.932
  C      318.488      80.126    -530.596
  N      319.739      79.857    -530.189
  C      319.733      79.285    -528.965
  C      318.632      79.021    -528.165
  C      317.378      79.377    -528.689
  N      316.198      79.216    -528.003
  N      319.037      78.456    -526.969
  C      320.346      78.391    -527.046
  N      320.812      78.876    -528.238
  O      323.307      79.424    -523.283
  O      325.218      77.717    -523.454
  H      322.795      81.429    -529.594
  H      323.570      79.510    -522.343
  H      318.386      80.567    -531.589
  H      321.004      78.000    -526.273
  H      322.194      79.115    -529.754
  H      322.544      80.361    -526.952
  H      324.904      80.419    -527.316
  H      325.009      77.934    -528.682
  H      324.579      76.825    -526.492
  H      315.346      79.556    -528.425
  H      316.228      78.866    -527.058
  H      325.763      78.153    -526.354
  P      326.414      80.119    -529.599
  C      327.032      82.594    -529.131
  O      327.006      81.533    -530.077
  O      326.521      79.196    -530.905
  O      327.112      79.494    -528.432
  H      327.132      78.457    -530.746
  H      327.449      83.468    -529.586
  H      327.631      82.309    -528.292
  H      326.035      82.804    -528.803

 6  7  8  9  10  11  12  13  14  15  25  28  32  33  34  35 0
 6-311+G(2d,p)
 ****
 36  39  40 0
 6-311+G(2d,p)
 ****
 1  2  3  4  5  16  17  18  19  20  21  22  23  24 0
 3-21G
 ****
 26  27  29  30  31  37  38  41  42  43  44  45  46  47 0
 3-21G
 ****
 48 0
 3-21G
 ****


