%nproc=1
%NoSave
%Mem=1900MB
#P OB98/GEN NMR

erre ene a

0 1
  C       82.112      58.800     -85.990
  O       81.442      59.779     -86.795
  P       80.165      59.442     -87.714
  C       81.674      59.137     -89.783
  O       80.637      58.584     -88.986
  C       81.786      58.435     -91.144
  O       82.358      57.099     -90.976
  C       80.445      58.265     -91.887
  O       80.715      58.479     -93.276
  C       80.104      56.807     -91.601
  O       79.150      56.262     -92.491
  C       81.508      56.192     -91.710
  N       81.636      54.830     -91.194
  C       81.236      53.777     -92.026
  O       80.738      53.983     -93.132
  N       81.388      52.486     -91.571
  C       81.888      52.265     -90.394
  N       82.025      50.964     -90.012
  C       82.306      53.343     -89.478
  C       82.155      54.585     -89.938
  O       79.356      60.647     -88.080
  O       79.283      58.411     -86.858
  H       78.336      58.585     -87.023
  H       78.362      56.835     -92.478
  H       82.723      53.115     -88.509
  H       82.463      55.435     -89.336
  H       81.836      56.217     -92.757
  H       79.704      56.735     -90.586
  H       79.673      58.973     -91.565
  H       82.494      59.002     -91.764
  H       81.734      50.250     -90.675
  H       82.624      59.020     -89.250
  H       82.407      50.678     -89.123
  H       81.487      60.211     -89.922
  P       80.277      59.862     -93.967
  C       77.814      59.187     -94.509
  O       78.692      60.020     -93.774
  O       80.378      59.496     -95.528
  O       81.123      61.055     -93.660
  H       80.531      60.314     -96.040
  H       77.030      58.821     -93.840
  H       78.327      58.329     -94.952
  H       77.349      59.779     -95.308
  H       82.927      59.261     -85.472
  H       82.485      58.017     -86.617
  H       81.424      58.391     -85.280

 3  4  5  6  7  8  9  10  11  12  13  24  27  28  29  30  32 0
 6-311+G(2d,p)
 ****
 34  35 0
 6-311+G(2d,p)
 ****
 1  2  14  15  16  17  18  19  20  21  22  23  25  26 0
 3-21G
 ****
 31  33  36  37  38  39  40  41  42  43  44  45  46 0
 3-21G
 ****


