%nproc=1
%NoSave
%Mem=1900MB
#P OB98/GEN NMR

erre ene a

0 1
  C      478.226    -230.747    2280.391
  O      476.919    -230.321    2280.009
  P      476.666    -229.377    2278.705
  C      474.905    -230.901    2277.573
  O      476.192    -230.330    2277.472
  C      474.653    -231.884    2276.414
  O      474.656    -231.158    2275.149
  C      475.694    -233.022    2276.268
  O      474.951    -234.205    2275.908
  C      476.566    -232.528    2275.141
  O      477.332    -233.536    2274.526
  C      475.532    -231.893    2274.231
  N      475.990    -231.028    2273.142
  C      475.555    -231.294    2271.865
  O      474.856    -232.309    2271.605
  N      475.976    -230.506    2270.843
  C      476.783    -229.513    2271.010
  N      477.148    -228.742    2269.991
  C      477.275    -229.172    2272.424
  C      476.839    -229.989    2273.408
  O      477.792    -228.478    2278.373
  O      475.357    -228.529    2279.055
  H      475.422    -227.630    2278.681
  H      477.952    -233.934    2275.142
  H      477.926    -228.312    2272.568
  H      477.174    -229.777    2274.419
  H      474.910    -232.710    2273.778
  H      477.254    -231.779    2275.550
  H      476.231    -233.246    2277.186
  H      473.640    -232.300    2276.521
  H      476.794    -228.989    2269.076
  H      474.142    -230.110    2277.543
  H      477.763    -227.930    2270.089
  H      474.831    -231.437    2278.561
  P      474.854    -235.446    2276.882
  C      472.297    -235.368    2277.277
  O      473.584    -235.252    2277.848
  O      476.086    -235.130    2277.905
  O      475.063    -236.813    2276.310
  H      476.383    -235.971    2278.294
  H      471.650    -235.976    2277.969
  H      472.292    -235.865    2276.303
  H      471.848    -234.408    2277.168
  H      478.161    -231.354    2281.269
  H      478.835    -229.891    2280.594
  H      478.662    -231.315    2279.596

 3  4  5  6  7  8  9  10  11  12  13  24  27  28  29  30  32 0
 6-311+G(2d,p)
 ****
 34  35 0
 6-311+G(2d,p)
 ****
 1  2  14  15  16  17  18  19  20  21  22  23  25  26 0
 3-21G
 ****
 31  33  36  37  38  39  40  41  42  43  44  45  46 0
 3-21G
 ****


