%nproc=1
%NoSave
%Mem=1900MB
#P OB98/GEN NMR

erre ene a

0 1
  C      679.105     131.614     203.116
  O      678.307     130.488     202.769
  P      676.773     130.366     203.241
  C      677.490     129.392     205.528
  O      676.759     129.188     204.353
  C      677.111     128.345     206.585
  O      677.899     128.586     207.785
  C      675.637     128.363     206.986
  O      675.245     127.006     207.246
  C      675.636     129.179     208.266
  O      674.490     128.924     209.086
  C      676.969     128.732     208.878
  N      677.477     129.689     209.872
  C      678.528     129.266     210.710
  O      678.983     128.130     210.621
  N      679.032     130.159     211.616
  C      678.489     131.334     211.758
  N      679.052     132.208     212.627
  C      677.301     131.777     210.974
  C      676.880     130.922     210.044
  O      675.786     130.200     202.146
  O      676.541     131.659     204.156
  H      674.513     129.557     209.831
  H      676.296     132.463     203.622
  H      676.864     132.744     211.134
  H      676.047     131.162     209.400
  H      676.875     127.740     209.344
  H      675.649     130.253     208.035
  H      674.974     128.780     206.218
  H      677.400     127.364     206.201
  H      679.958     131.934     213.017
  H      677.239     130.387     205.926
  H      678.899     133.203     212.559
  H      678.563     129.362     205.327
  P      673.988     126.400     206.445
  C      672.165     126.754     208.264
  O      672.934     125.828     207.524
  O      674.626     125.039     205.834
  O      673.446     127.252     205.346
  H      674.120     124.806     205.036
  H      671.512     126.187     208.945
  H      671.560     127.349     207.600
  H      672.821     127.395     208.874
  H      680.086     131.496     202.705
  H      679.171     131.689     204.181
  H      678.658     132.503     202.723

 3  4  5  6  7  8  9  10  11  12  13  23  27  28  29  30  32 0
 6-311+G(2d,p)
 ****
 34  35 0
 6-311+G(2d,p)
 ****
 1  2  14  15  16  17  18  19  20  21  22  24  25  26 0
 3-21G
 ****
 31  33  36  37  38  39  40  41  42  43  44  45  46 0
 3-21G
 ****


