%nproc=1
%NoSave
%Mem=1900MB
#P OB98/GEN NMR

erre ene a

0 1
  C     -507.152     -77.871     265.904
  O     -507.664     -78.027     264.596
  H     -506.667     -76.895     265.975
  H     -506.413     -78.648     266.108
  H     -507.958     -77.919     266.642
  P     -508.622     -79.283     264.326
  C     -508.299     -80.365     261.983
  O     -508.890     -79.322     262.741
  C     -508.494     -80.105     260.491
  O     -509.918     -80.188     260.190
  C     -508.010     -78.722     260.030
  O     -507.461     -78.855     258.712
  C     -509.290     -77.916     259.958
  O     -509.220     -76.795     259.089
  C     -510.284     -78.986     259.482
  N     -511.671     -78.620     259.750
  C     -512.548     -78.618     258.668
  O     -512.264     -78.973     257.529
  N     -513.818     -78.174     258.943
  C     -514.275     -77.721     260.152
  O     -515.415     -77.318     260.328
  C     -513.296     -77.746     261.248
  C     -512.062     -78.183     261.001
  O     -510.023     -78.801     264.928
  O     -508.163     -80.580     264.908
  H     -510.092     -79.047     265.870
  H     -508.886     -76.039     259.609
  H     -514.465     -78.159     258.176
  H     -513.617     -77.384     262.220
  H     -511.312     -78.192     261.785
  H     -510.149     -79.178     258.414
  H     -509.558     -77.550     260.959
  H     -507.270     -78.265     260.692
  H     -508.000     -80.903     259.925
  H     -508.773     -81.318     262.246
  H     -507.231     -80.427     262.225
  P     -505.880     -78.643     258.547
  C     -505.590     -77.359     256.281
  O     -505.615     -78.604     256.966
  O     -505.331     -80.066     259.007
  O     -505.364     -77.479     259.323
  H     -505.913     -80.804     258.754
  H     -505.402     -77.528     255.241
  H     -504.816     -76.743     256.689
  H     -506.534     -76.869     256.397

 6  7  8  9  10  11  12  13  14  15  16  27  31  32  33  34  35 0
 6-311+G(2d,p)
 ****
 36  37 0
 6-311+G(2d,p)
 ****
 1  2  3  4  5  17  18  19  20  21  22  23  24  25 0
 3-21G
 ****
 26  28  29  30  38  39  40  41  42  43  44  45 0
 3-21G
 ****


