%nproc=1
%NoSave
%Mem=1900MB
#P OB98/GEN NMR

erre ene a

0 1
  C      -82.405      74.426      66.224
  O      -82.109      73.593      65.099
  P      -82.797      73.986      63.702
  C      -85.175      73.810      64.719
  O      -84.243      74.617      64.012
  C      -86.618      74.263      64.459
  O      -86.863      75.576      65.041
  C      -86.974      74.362      62.972
  O      -88.356      74.012      62.829
  C      -86.815      75.842      62.681
  O      -87.514      76.223      61.498
  C      -87.344      76.436      63.985
  N      -88.122      81.305      62.656
  C      -88.730      80.159      62.286
  N      -88.449      78.892      62.673
  C      -87.444      78.887      63.565
  C      -86.720      79.975      64.032
  C      -87.094      81.234      63.537
  N      -86.456      82.401      63.894
  N      -85.730      79.562      64.907
  C      -85.856      78.250      64.960
  N      -86.896      77.800      64.190
  O      -83.140      72.565      63.049
  O      -81.924      74.802      62.807
  H      -87.007      75.893      60.725
  H      -82.537      72.390      62.301
  H      -89.552      80.269      61.584
  H      -85.223      77.584      65.526
  H      -88.442      76.444      64.025
  H      -85.752      76.084      62.544
  H      -86.363      73.738      62.314
  H      -87.296      73.555      64.953
  H      -84.973      73.859      65.793
  H      -86.766      83.263      63.474
  H      -85.660      82.358      64.512
  H      -85.031      72.762      64.434
  P      -88.667      72.570      62.197
  C      -89.393      73.551      59.908
  O      -88.486      72.728      60.614
  O      -90.251      72.408      62.387
  O      -87.910      71.448      62.832
  H      -90.490      71.463      62.420
  H      -88.841      74.120      59.154
  H      -89.913      74.254      60.566
  H      -90.132      72.921      59.406
  H      -81.888      74.058      67.086
  H      -83.459      74.415      66.409
  H      -82.089      75.428      66.019

 3  4  5  6  7  8  9  10  11  12  22  25  29  30  31  32 0
 6-311+G(2d,p)
 ****
 33  36  37 0
 6-311+G(2d,p)
 ****
 1  2  13  14  15  16  17  18  19  20  21  23  24  26 0
 3-21G
 ****
 27  28  34  35  38  39  40  41  42  43  44  45  46  47  48 0
 3-21G
 ****


