%nproc=1
%NoSave
%Mem=1900MB
#P OB98/GEN NMR

erre ene a

0 1
  C      -49.847     185.332    -251.401
  O      -48.865     186.304    -251.702
  H      -50.079     185.389    -250.333
  H      -49.467     184.334    -251.623
  H      -50.763     185.519    -251.968
  P      -48.490     186.574    -253.236
  C      -47.687     188.969    -252.713
  O      -47.343     187.695    -253.243
  C      -46.432     189.822    -252.550
  O      -45.600     189.286    -251.499
  C      -45.548     189.869    -253.793
  O      -46.101     190.727    -254.777
  C      -44.237     190.349    -253.189
  O      -44.254     191.770    -252.985
  C      -44.226     189.597    -251.836
  N      -43.408     188.388    -251.854
  C      -42.043     188.566    -252.057
  O      -41.532     189.669    -252.251
  N      -41.283     187.426    -252.046
  C      -41.753     186.149    -251.940
  O      -41.033     185.157    -251.991
  C      -43.207     186.019    -251.762
  C      -43.954     187.126    -251.728
  O      -49.640     186.847    -254.148
  O      -47.699     185.250    -253.668
  H      -44.298     192.178    -253.872
  H      -48.291     184.661    -254.167
  H      -40.292     187.535    -252.205
  H      -43.619     185.020    -251.682
  H      -45.029     187.045    -251.604
  H      -43.852     190.252    -251.040
  H      -43.378     190.135    -253.825
  H      -45.402     188.861    -254.194
  H      -46.740     190.832    -252.253
  H      -48.161     188.829    -251.737
  H      -48.401     189.454    -253.390
  P      -45.924     190.409    -256.333
  C      -48.053     191.749    -256.801
  O      -46.689     191.558    -257.151
  O      -46.272     189.015    -256.744
  O      -44.382     190.724    -256.618
  H      -43.887     189.891    -256.727
  H      -48.469     192.532    -257.400
  H      -48.122     192.016    -255.767
  H      -48.595     190.843    -256.972

 6  7  8  9  10  11  12  13  14  15  16  26  31  32  33  34  35 0
 6-311+G(2d,p)
 ****
 36  37 0
 6-311+G(2d,p)
 ****
 1  2  3  4  5  17  18  19  20  21  22  23  24  25 0
 3-21G
 ****
 27  28  29  30  38  39  40  41  42  43  44  45 0
 3-21G
 ****


