%nproc=1
%NoSave
%Mem=1900MB
#P OB98/GEN NMR

erre ene a

0 1
  C     -472.448     393.754     214.461
  O     -471.652     393.541     215.602
  H     -472.859     394.766     214.503
  H     -473.286     393.050     214.442
  H     -471.856     393.659     213.548
  P     -470.956     392.112     215.817
  C     -468.659     393.099     215.222
  O     -469.643     392.131     214.882
  C     -467.729     393.382     214.037
  O     -468.522     393.678     212.851
  C     -466.770     394.560     214.262
  O     -465.444     394.193     213.884
  C     -467.301     395.638     213.324
  O     -466.312     396.581     212.947
  C     -467.863     394.771     212.180
  N     -468.762     395.514     211.324
  C     -468.360     395.657     209.976
  O     -467.300     395.159     209.605
  N     -469.129     396.410     209.133
  C     -470.199     396.995     209.580
  N     -470.897     397.741     208.697
  C     -470.642     396.897     210.992
  C     -469.889     396.150     211.795
  O     -471.858     390.940     215.622
  O     -470.334     392.181     217.292
  H     -466.043     397.084     213.745
  H     -470.207     391.259     217.626
  H     -471.532     397.420     211.317
  H     -470.136     396.021     212.847
  H     -467.052     394.355     211.572
  H     -468.123     396.175     213.814
  H     -466.758     394.906     215.297
  H     -467.175     392.459     213.808
  H     -470.556     397.795     207.752
  H     -468.086     392.721     216.082
  H     -471.724     398.277     208.935
  H     -469.168     394.027     215.505
  P     -464.524     393.552     215.028
  C     -464.483     391.177     213.971
  O     -464.848     391.977     215.095
  O     -465.161     394.128     216.386
  O     -463.080     393.903     214.898
  H     -464.550     394.770     216.784
  H     -464.756     390.159     214.154
  H     -463.426     391.240     213.816
  H     -464.993     391.532     213.100

 6  7  8  9  10  11  12  13  14  15  16  26  30  31  32  33  35 0
 6-311+G(2d,p)
 ****
 37  38 0
 6-311+G(2d,p)
 ****
 1  2  3  4  5  17  18  19  20  21  22  23  24  25 0
 3-21G
 ****
 27  28  29  34  36  39  40  41  42  43  44  45  46 0
 3-21G
 ****


