%nproc=1
%NoSave
%Mem=1900MB
#P OB98/GEN NMR

erre ene a

0 1
  C     -636.974     528.603     190.001
  O     -636.548     529.764     190.678
  P     -635.147     529.866     191.448
  C     -635.626     529.245     193.931
  O     -635.153     528.806     192.660
  C     -635.112     528.367     195.098
  O     -635.817     527.112     195.089
  C     -633.636     528.043     194.897
  O     -632.645     528.967     195.310
  C     -633.471     526.631     195.453
  O     -632.952     526.609     196.781
  C     -634.889     526.064     195.410
  N     -633.095     521.639     193.699
  C     -632.795     522.298     194.875
  N     -631.763     521.806     195.582
  N     -633.449     523.357     195.297
  C     -634.402     523.780     194.435
  C     -634.793     523.212     193.242
  C     -634.096     522.017     192.806
  O     -634.270     521.450     191.733
  N     -635.736     523.961     192.597
  C     -635.889     525.016     193.370
  N     -635.077     524.971     194.468
  O     -634.614     531.245     191.708
  O     -634.154     529.156     190.388
  H     -633.375     527.330     197.293
  H     -633.294     529.607     190.457
  H     -632.499     520.885     193.372
  H     -636.563     525.856     193.163
  H     -635.182     525.691     196.404
  H     -632.762     526.061     194.836
  H     -631.146     521.096     195.213
  H     -633.469     527.942     193.813
  H     -631.411     522.363     196.356
  H     -635.349     528.828     196.059
  H     -636.719     529.249     193.893
  H     -635.305     530.275     194.099
  P     -631.451     529.530     194.399
  C     -629.814     527.683     195.091
  O     -630.483     528.311     194.014
  O     -630.547     530.385     195.429
  O     -631.884     530.377     193.251
  H     -630.020     531.048     194.930
  H     -628.982     527.104     194.710
  H     -630.515     527.009     195.609
  H     -629.440     528.421     195.804
  H     -637.937     528.776     189.567
  H     -637.036     527.789     190.693
  H     -636.273     528.363     189.229

 3  4  5  6  7  8  9  10  11  12  23  26  30  31 0
 6-311+G(2d,p)
 ****
 33  35  36  37  38 0
 6-311+G(2d,p)
 ****
 1  2  13  14  15  16  17  18  19  20  21  22  24  25 0
 3-21G
 ****
 27  28  29  32  34  39  40  41  42  43  44  45  46  47  48  49 0
 3-21G
 ****


