%nproc=1
%NoSave
%Mem=1900MB
#P OB98/GEN NMR

erre ene a

0 1
  C      -92.032     129.927     305.022
  O      -93.061     129.005     305.385
  P      -93.662     129.085     306.870
  C      -94.294     126.759     307.961
  O      -94.638     127.843     307.128
  C      -95.523     125.844     308.125
  O      -96.499     126.459     308.995
  C      -96.236     125.542     306.808
  O      -95.659     124.430     306.137
  C      -97.659     125.304     307.265
  O      -97.789     123.984     307.828
  C      -97.804     126.379     308.360
  N      -98.214     127.744     307.948
  C      -99.564     128.046     307.801
  O     -100.479     127.248     307.987
  N      -99.857     129.336     307.434
  C      -98.971     130.377     307.371
  O      -99.299     131.525     307.095
  C      -97.580     130.034     307.683
  C      -97.273     128.763     307.936
  O      -94.651     130.338     306.816
  O      -92.633     129.230     307.951
  H      -98.722     123.878     308.093
  H      -94.332     131.050     307.406
  H     -100.824     129.555     307.252
  H      -96.853     130.838     307.690
  H      -96.239     128.505     308.173
  H      -98.521     126.056     309.132
  H      -98.357     125.347     306.427
  H      -96.233     126.432     306.165
  H      -95.195     124.902     308.593
  H      -93.961     127.105     308.940
  H      -93.467     126.198     307.515
  P      -94.803     124.663     304.802
  C      -95.331     122.293     303.965
  O      -94.315     123.196     304.349
  O      -93.735     125.701     304.880
  O      -95.913     125.022     303.696
  H      -96.001     125.991     303.594
  H      -94.865     121.403     303.533
  H      -95.992     122.747     303.223
  H      -95.911     121.995     304.845
  H      -91.736     129.751     304.009
  H      -91.189     129.794     305.668
  H      -92.400     130.927     305.117

 3  4  5  6  7  8  9  10  11  12  13  23  28  29  30  31  32 0
 6-311+G(2d,p)
 ****
 33  34 0
 6-311+G(2d,p)
 ****
 1  2  14  15  16  17  18  19  20  21  22  24  25  26  27 0
 3-21G
 ****
 35  36  37  38  39  40  41  42  43  44  45 0
 3-21G
 ****


