%nproc=1
%NoSave
%Mem=1900MB
#P OB98/GEN NMR

erre ene a

0 1
  C       36.274    -746.859      65.050
  O       36.655    -746.238      63.824
  P       36.345    -747.032      62.460
  C       38.915    -747.093      62.100
  O       37.691    -747.826      62.111
  C       40.069    -747.967      62.578
  O       39.820    -748.398      63.933
  C       40.275    -749.241      61.779
  O       40.989    -749.004      60.579
  C       41.090    -750.076      62.758
  O       42.471    -749.685      62.680
  C       40.489    -749.668      64.113
  N       39.608    -753.120      67.713
  C       40.710    -752.319      67.505
  N       41.723    -752.441      68.397
  N       40.829    -751.485      66.505
  C       39.731    -751.438      65.716
  C       38.575    -752.182      65.824
  C       38.480    -753.143      66.903
  O       37.548    -753.922      67.101
  N       37.674    -751.846      64.841
  C       38.267    -750.875      64.170
  N       39.533    -750.621      64.643
  O       36.309    -745.861      61.370
  O       35.084    -747.828      62.464
  H       42.970    -750.280      63.267
  H       35.755    -746.137      60.613
  H       39.561    -753.732      68.510
  H       37.832    -750.342      63.340
  H       41.283    -749.507      64.858
  H       41.039    -751.149      62.546
  H       41.633    -752.967      69.252
  H       39.314    -749.740      61.582
  H       42.531    -751.840      68.291
  H       40.977    -747.356      62.576
  H       38.816    -746.228      62.771
  H       39.106    -746.723      61.085
  P       40.182    -749.194      59.200
  C       41.739    -751.187      58.595
  O       40.409    -750.720      58.785
  O       41.052    -748.360      58.143
  O       38.759    -748.733      59.263
  H       40.485    -748.060      57.413
  H       42.431    -750.716      59.313
  H       42.057    -750.954      57.575
  H       41.759    -752.260      58.746
  H       36.539    -746.223      65.869
  H       36.781    -747.796      65.148
  H       35.217    -747.023      65.053

 3  4  5  6  7  8  9  10  11  12  23  26  30  31  33  0
 6-311+G(2d,p)
 ****
 35  36  37  38 0
 6-311+G(2d,p)
 ****
 1  2  13  14  15  16  17  18  19  20  21  22  24  25  27  28  29 0
 3-21G
 ****
 32  34  39  40  41  42  43  44  45  46  47  48  49 0
 3-21G
 ****


