%nproc=1
%NoSave
%Mem=1900MB
#P OB98/GEN NMR

erre ene a

0 1
  C     -503.771     -69.671    -421.194
  O     -502.542     -69.272    -421.763
  H     -504.558     -69.580    -421.953
  H     -504.024     -69.033    -420.343
  H     -503.716     -70.717    -420.868
  P     -501.252     -69.327    -420.807
  C     -500.756     -66.907    -421.605
  O     -500.235     -68.201    -421.357
  C     -500.705     -66.588    -423.096
  O     -499.333     -66.746    -423.573
  C     -501.594     -67.504    -423.964
  O     -502.168     -66.732    -425.026
  C     -500.602     -68.490    -424.556
  O     -501.077     -69.088    -425.764
  C     -499.379     -67.593    -424.742
  N     -496.910     -70.713    -427.828
  C     -498.124     -70.070    -427.996
  N     -498.787     -70.291    -429.150
  N     -498.653     -69.276    -427.085
  C     -497.864     -69.122    -425.992
  C     -496.649     -69.711    -425.706
  C     -496.094     -70.610    -426.702
  O     -495.039     -71.224    -426.614
  N     -496.189     -69.331    -424.471
  C     -497.119     -68.509    -424.004
  N     -498.156     -68.349    -424.896
  O     -500.547     -70.707    -421.220
  O     -501.530     -69.254    -419.340
  H     -500.382     -69.687    -426.104
  H     -500.064     -71.089    -420.457
  H     -496.567     -71.323    -428.547
  H     -497.106     -68.019    -423.044
  H     -499.466     -66.944    -425.626
  H     -500.396     -69.297    -423.835
  H     -498.439     -70.856    -429.893
  H     -502.389     -68.003    -423.403
  H     -499.677     -69.816    -429.290
  H     -500.967     -65.532    -423.252
  H     -500.161     -66.167    -421.059
  H     -501.795     -66.860    -421.257
  P     -503.196     -65.564    -424.622
  C     -504.985     -66.360    -426.343
  O     -504.171     -65.281    -425.868
  O     -502.266     -64.265    -424.577
  O     -503.880     -65.787    -423.301
  H     -502.132     -63.985    -423.658
  H     -505.576     -66.024    -427.169
  H     -505.629     -66.694    -425.556
  H     -504.358     -67.168    -426.658

 6  7  8  9  10  11  12  13  14  15  26  29  33  34 0
 6-311+G(2d,p)
 ****
 36  38  39  40  41 0
 6-311+G(2d,p)
 ****
 1  2  3  4  5  16  17  18  19  20  21  22  23  24  25 0
 3-21G
 ****
 27  28  30  31  32  35  37  42  43  44  45  46  47 0
 3-21G
 ****
 48  49 0
 3-21G
 ****


