%nproc=1
%NoSave
%Mem=1900MB
#P OB98/GEN NMR

erre ene a

0 1
  C      -51.624    -334.990     991.419
  O      -52.768    -335.765     991.175
  P      -53.296    -336.845     992.246
  C      -55.122    -335.110     992.807
  O      -54.843    -336.459     992.475
  C      -56.517    -334.719     992.366
  O      -56.573    -334.771     990.924
  C      -57.643    -335.646     992.841
  O      -58.139    -335.341     994.161
  C      -58.728    -335.319     991.825
  O      -59.372    -334.077     992.172
  C      -57.912    -335.161     990.534
  N      -59.881    -337.624     986.503
  C      -60.109    -336.389     987.010
  N      -59.550    -335.809     988.088
  C      -58.667    -336.630     988.671
  C      -58.314    -337.917     988.253
  C      -58.971    -338.419     987.126
  N      -58.723    -339.667     986.603
  N      -57.352    -338.445     989.105
  C      -57.121    -337.507     989.986
  N      -57.872    -336.368     989.757
  O      -52.463    -336.947     993.476
  O      -53.376    -338.204     991.429
  H      -59.732    -334.188     993.073
  H      -53.437    -338.966     992.042
  H      -60.821    -335.779     986.472
  H      -56.424    -337.580     990.806
  H      -58.304    -334.353     989.891
  H      -59.515    -336.080     991.795
  H      -57.369    -336.701     992.759
  H      -56.713    -333.675     992.684
  H      -54.387    -334.469     992.303
  H      -59.149    -339.895     985.690
  H      -57.934    -340.185     986.951
  H      -54.988    -334.966     993.891
  P      -59.210    -336.362     994.777
  C      -57.533    -337.578     996.387
  O      -58.657    -336.735     996.240
  O      -59.536    -337.531     993.912
  O      -60.461    -335.415     995.090
  H      -60.321    -334.742     995.791
  H      -57.231    -337.563     997.424
  H      -56.693    -337.230     995.784
  H      -57.794    -338.609     996.111
  H      -51.449    -334.341     990.587
  H      -50.780    -335.633     991.553
  H      -51.771    -334.405     992.303

 3  4  5  6  7  8  9  10  11  12  22  25  29  30  31  32 0
 6-311+G(2d,p)
 ****
 33  36  37 0
 6-311+G(2d,p)
 ****
 1  2  13  14  15  16  17  18  19  20  21  23  24  26 0
 3-21G
 ****
 27  28  34  35  38  39  40  41  42  43  44  45  46  47  48 0
 3-21G
 ****


