%nproc=1
%NoSave
%Mem=1900MB
#P OB98/GEN NMR

erre ene a

0 1
  C     -892.490     369.909    -283.311
  O     -893.400     369.545    -282.291
  P     -894.690     370.438    -281.974
  C     -893.560     372.246    -280.526
  O     -894.410     371.118    -280.547
  C     -893.580     372.929    -279.156
  O     -894.900     373.413    -278.842
  C     -893.200     372.008    -277.990
  O     -891.790     371.803    -277.956
  C     -893.780     372.761    -276.817
  O     -892.880     373.795    -276.388
  C     -895.060     373.380    -277.393
  N     -896.270     372.648    -277.018
  C     -896.850     373.029    -275.803
  O     -896.320     373.916    -275.118
  N     -897.960     372.365    -275.378
  C     -898.450     371.380    -276.085
  N     -899.570     370.765    -275.582
  C     -897.850     370.927    -277.344
  C     -896.760     371.601    -277.733
  O     -896.000     369.732    -282.105
  O     -894.520     371.668    -282.986
  H     -892.750     374.393    -277.189
  H     -894.730     371.399    -283.916
  H     -898.280     370.113    -277.885
  H     -896.250     371.317    -278.668
  H     -895.170     374.406    -277.076
  H     -893.950     372.105    -275.938
  H     -893.720     371.040    -278.122
  H     -892.890     373.799    -279.194
  H     -899.910     371.102    -274.687
  H     -893.930     372.960    -281.289
  H     -900.000     369.993    -276.028
  H     -892.560     371.951    -280.793
  P     -891.210     370.317    -277.835
  C     -891.790     370.085    -275.333
  O     -890.730     370.101    -276.305
  O     -890.190     369.939    -278.859
  O     -892.510     369.388    -277.943
  H     -892.320     368.643    -278.537
  H     -891.370     369.630    -274.426
  H     -892.640     369.517    -275.690
  H     -892.060     371.098    -275.102
  H     -891.703     369.186    -283.362
  H     -892.077     370.872    -283.093
  H     -893.002     369.945    -284.250

 3  4  5  6  7  8  9  10  11  12  13  23  27  28  29  30  32 0
 6-311+G(2d,p)
 ****
 34  35 0
 6-311+G(2d,p)
 ****
 1  2  14  15  16  17  18  19  20  21  22  24  25  26 0
 3-21G
 ****
 31  33  36  37  38  39  40  41  42  43  44  45  46 0
 3-21G
 ****


