%nproc=1
%NoSave
%Mem=1900MB
#P OB98/GEN NMR

erre ene a

0 1
  C      273.090     -12.748    -196.342
  O      272.865     -12.481    -197.724
  P      271.345     -12.418    -198.239
  C      271.493     -10.337    -199.784
  O      271.048     -10.872    -198.540
  C      272.458      -9.177    -199.555
  O      273.607      -9.619    -198.794
  C      273.025      -8.553    -200.826
  O      272.123      -7.617    -201.412
  C      274.241      -7.840    -200.286
  O      273.857      -6.594    -199.667
  C      274.751      -8.823    -199.217
  N      279.805      -9.636    -199.374
  C      279.071      -8.624    -198.868
  N      277.730      -8.468    -198.867
  C      277.141      -9.495    -199.518
  C      277.761     -10.584    -200.130
  C      279.163     -10.644    -200.023
  N      279.915     -11.682    -200.524
  N      276.830     -11.432    -200.691
  C      275.666     -10.863    -200.439
  N      275.799      -9.697    -199.719
  O      270.492     -12.696    -196.899
  O      271.005     -13.377    -199.329
  H      273.312      -6.816    -198.889
  H      269.616     -13.047    -197.131
  H      279.630      -7.830    -198.377
  H      274.705     -11.268    -200.724
  H      275.141      -8.314    -198.327
  H      274.974      -7.587    -201.068
  H      273.329      -9.327    -201.544
  H      271.939      -8.413    -198.954
  H      270.631      -9.974    -200.345
  H      280.885     -11.749    -200.251
  H      279.411     -12.523    -200.821
  H      271.992     -11.135    -200.364
  P      271.330      -8.092    -202.716
  C      268.947      -7.768    -201.724
  O      269.928      -8.674    -202.192
  O      272.138      -9.397    -203.188
  O      271.241      -7.061    -203.796
  H      272.034      -9.540    -204.147
  H      267.979      -8.283    -201.694
  H      268.863      -6.911    -202.385
  H      269.187      -7.435    -200.709
  H      274.142     -12.760    -196.148
  H      272.670     -13.699    -196.090
  H      272.627     -11.986    -195.751

 3  4  5  6  7  8  9  10  11  12  22  25  29  30  31  32 0
 6-311+G(2d,p)
 ****
 33  36  37 0
 6-311+G(2d,p)
 ****
 1  2  13  14  15  16  17  18  19  20  21  23  24  26 0
 3-21G
 ****
 27  28  34  35  38  39  40  41  42  43  44  45  46  47  48 0
 3-21G
 ****


