%nproc=1
%NoSave
%Mem=1900MB
#P OB98/GEN NMR

erre ene a

0 1
  C       -6.243    -168.341      83.699
  O       -6.936    -169.584      83.812
  P       -8.148    -169.886      82.807
  C       -6.816    -171.138      80.991
  O       -7.811    -171.234      82.006
  C       -7.185    -172.005      79.787
  O       -6.565    -171.529      78.577
  C       -6.738    -173.450      79.927
  O       -7.564    -174.152      80.839
  C       -6.810    -173.928      78.486
  O       -8.152    -174.296      78.131
  C       -6.384    -172.666      77.703
  N       -5.023    -172.735      77.194
  C       -4.737    -173.817      76.354
  O       -5.599    -174.662      76.115
  N       -3.476    -173.919      75.820
  C       -2.579    -173.026      76.108
  N       -1.350    -173.176      75.548
  C       -2.838    -171.879      76.998
  C       -4.066    -171.801      77.507
  O       -8.588    -168.736      81.962
  O       -9.320    -170.357      83.798
  H       -8.687    -173.481      78.215
  H      -10.182    -170.113      83.404
  H       -2.060    -171.157      77.202
  H       -4.340    -170.990      78.175
  H       -7.053    -172.506      76.847
  H       -6.179    -174.805      78.315
  H       -5.696    -173.482      80.275
  H       -8.277    -171.965      79.658
  H       -1.195    -173.978      74.950
  H       -5.851    -171.453      81.395
  H       -0.602    -172.508      75.669
  H       -6.709    -170.087      80.702
  P       -6.849    -175.099      81.916
  C       -7.224    -173.573      83.979
  O       -7.511    -174.804      83.344
  O       -5.387    -174.454      82.047
  O       -6.770    -176.540      81.530
  H       -4.733    -175.157      82.212
  H       -7.975    -173.397      84.754
  H       -7.251    -172.742      83.270
  H       -6.238    -173.623      84.448
  H       -5.469    -168.296      84.436
  H       -6.929    -167.535      83.853
  H       -5.812    -168.261      82.723

 3  4  5  6  7  8  9  10  11  12  13  23  27  28  29  30  32 0
 6-311+G(2d,p)
 ****
 34  35 0
 6-311+G(2d,p)
 ****
 1  2  14  15  16  17  18  19  20  21  22  24  25  26 0
 3-21G
 ****
 31  33  36  37  38  39  40  41  42  43  44  45  46 0
 3-21G
 ****


