%nproc=1
%NoSave
%Mem=1900MB
#P OB98/GEN NMR

erre ene a

0 1
  C       26.328      28.012      52.433
  O       25.572      26.941      51.900
  H       27.382      27.720      52.460
  H       25.996      28.229      53.452
  H       26.223      28.903      51.809
  P       24.039      27.252      51.560
  C       23.084      26.093      53.711
  O       23.238      27.287      52.956
  C       21.628      25.641      53.683
  O       21.453      24.430      54.445
  C       20.659      26.616      54.330
  O       20.443      27.769      53.548
  C       19.423      25.736      54.467
  O       18.652      25.714      53.260
  C       20.040      24.345      54.749
  N       19.792      23.912      56.112
  C       18.637      23.140      56.294
  O       17.924      22.857      55.331
  N       18.305      22.745      57.563
  C       19.042      23.110      58.566
  N       18.638      22.713      59.802
  C       20.265      23.925      58.417
  C       20.579      24.288      57.174
  O       23.549      25.885      50.893
  O       23.818      28.459      50.713
  H       19.252      25.390      52.557
  H       23.782      25.093      51.405
  H       20.853      24.192      59.283
  H       21.460      24.886      56.973
  H       19.619      23.593      54.069
  H       18.761      26.092      55.261
  H       21.004      26.878      55.339
  H       21.353      25.439      52.639
  H       17.764      22.204      59.864
  H       23.415      26.246      54.743
  H       19.086      23.002      60.659
  H       23.730      25.331      53.264
  P       19.785      29.088      54.172
  C       17.658      29.176      52.720
  O       18.192      28.928      54.016
  O       20.325      30.378      53.655
  O       19.985      28.882      55.748
  H       19.566      28.083      56.112
  H       16.597      29.040      52.739
  H       18.093      28.495      52.019
  H       17.883      30.180      52.428

 6  7  8  9  10  11  12  13  14  15  16  26  30  31  32  33  35 0
 6-311+G(2d,p)
 ****
 37  38 0
 6-311+G(2d,p)
 ****
 1  2  3  4  5  17  18  19  20  21  22  23  24  25 0
 3-21G
 ****
 27  28  29  34  36  39  40  41  42  43  44  45  46 0
 3-21G
 ****


