%nproc=1
%NoSave
%Mem=1900MB
#P OB98/GEN NMR

erre ene a

0 1
  C     -599.713    -528.192       8.443
  O     -599.051    -529.255       9.135
  P     -597.927    -530.174       8.479
  C     -596.105    -529.054       9.942
  O     -596.511    -529.416       8.637
  C     -594.837    -528.192       9.905
  O     -595.063    -527.016       9.087
  C     -594.394    -527.611      11.249
  O     -593.822    -528.604      12.094
  C     -593.424    -526.518      10.795
  O     -592.127    -527.046      10.561
  C     -594.061    -526.044       9.479
  N     -594.659    -524.723       9.566
  C     -593.844    -523.660       9.141
  O     -592.689    -523.839       8.784
  N     -594.384    -522.380       9.140
  C     -595.582    -522.189       9.604
  N     -596.060    -520.910       9.570
  C     -596.394    -523.258      10.199
  C     -595.882    -524.484      10.145
  O     -598.220    -530.594       7.080
  O     -597.781    -531.445       9.455
  H     -597.448    -532.216       8.943
  H     -591.535    -526.276      10.413
  H     -597.357    -523.040      10.631
  H     -596.425    -525.344      10.547
  H     -593.326    -526.056       8.679
  H     -593.337    -525.744      11.560
  H     -595.276    -527.157      11.754
  H     -594.019    -528.785       9.466
  H     -595.484    -520.191       9.152
  H     -595.885    -529.983      10.503
  H     -596.974    -520.651       9.908
  H     -596.920    -528.539      10.463
  P     -594.817    -529.579      12.869
  C     -594.013    -531.677      11.580
  O     -595.099    -530.844      11.926
  O     -596.194    -528.776      12.867
  O     -594.393    -529.917      14.262
  H     -596.651    -528.909      13.723
  H     -594.401    -532.698      11.379
  H     -593.273    -531.754      12.357
  H     -593.546    -531.311      10.654
  H     -600.422    -527.728       9.096
  H     -600.221    -528.585       7.587
  H     -598.991    -527.468       8.128

 3  4  5  6  7  8  9  10  11  12  13  24  27  28  29  30  32 0
 6-311+G(2d,p)
 ****
 34  35 0
 6-311+G(2d,p)
 ****
 1  2  14  15  16  17  18  19  20  21  22  23  25  26 0
 3-21G
 ****
 31  33  36  37  38  39  40  41  42  43  44  45  46 0
 3-21G
 ****


