%nproc=1
%NoSave
%Mem=1900MB
#P OB98/GEN NMR

erre ene a

0 1
  C      235.507     -28.480      47.247
  O      236.014     -29.695      46.686
  P      235.073     -30.442      45.615
  C      236.733     -30.075      43.644
  O      236.027     -31.005      44.453
  C      236.080     -29.950      42.269
  O      236.719     -28.926      41.484
  C      236.165     -31.211      41.422
  O      235.183     -32.164      41.797
  C      235.873     -30.654      40.035
  O      234.452     -30.525      39.848
  C      236.536     -29.267      40.088
  N      238.970     -28.441      35.720
  C      237.619     -28.394      36.004
  N      236.803     -28.051      34.983
  N      237.113     -28.658      37.179
  C      238.050     -28.956      38.111
  C      239.413     -29.036      37.954
  C      239.958     -28.773      36.638
  O      241.143     -28.832      36.327
  N      240.037     -29.358      39.131
  C      239.057     -29.444      40.007
  N      237.829     -29.223      39.432
  O      234.306     -29.229      44.906
  O      234.131     -31.426      46.219
  H      234.097     -31.429      39.729
  H      233.445     -29.533      44.563
  H      239.304     -28.235      34.795
  H      239.181     -29.659      41.061
  H      235.899     -28.494      39.645
  H      236.241     -31.300      39.232
  H      237.130     -27.766      34.073
  H      237.178     -31.633      41.446
  H      235.812     -27.977      35.181
  H      235.029     -29.670      42.417
  H      237.770     -30.398      43.526
  H      236.758     -29.107      44.156
  P      235.346     -33.652      41.219
  C      236.846     -34.779      43.012
  O      235.541     -34.591      42.503
  O      236.795     -33.619      40.539
  O      234.285     -34.063      40.257
  H      236.836     -34.256      39.801
  H      237.402     -33.838      43.037
  H      237.382     -35.505      42.394
  H      236.774     -35.169      44.031
  H      236.219     -28.082      47.940
  H      234.587     -28.679      47.756
  H      235.336     -27.770      46.465

 3  4  5  6  7  8  9  10  11  12  23  26  30  31  33  0
 6-311+G(2d,p)
 ****
 35  36  37  38 0
 6-311+G(2d,p)
 ****
 1  2  13  14  15  16  17  18  19  20  21  22  24  25  27  28  29 0
 3-21G
 ****
 32  34  39  40  41  42  43  44  45  46  47  48  49 0
 3-21G
 ****


