%nproc=1
%NoSave
%Mem=1900MB
#P OB98/GEN NMR

erre ene a

0 1
  C      693.105     778.891      -3.487
  O      693.761     777.985      -2.622
  H      693.434     778.687      -4.511
  H      693.375     779.910      -3.228
  H      692.021     778.766      -3.439
  P      693.253     777.853      -1.108
  C      692.851     775.310      -1.227
  O      692.263     776.592      -1.064
  C      691.785     774.214      -1.252
  O      691.103     774.191       0.037
  C      690.718     774.412      -2.331
  O      690.260     773.118      -2.734
  C      689.623     775.129      -1.561
  O      688.381     775.066      -2.228
  C      689.697     774.396      -0.215
  N      689.048     775.140       0.865
  C      687.722     775.509       0.655
  O      687.114     775.267      -0.397
  N      687.126     776.214       1.663
  C      687.728     776.625       2.817
  O      687.148     777.278       3.674
  C      689.146     776.237       2.969
  C      689.724     775.523       2.000
  O      692.697     779.106      -0.504
  O      694.531     777.328      -0.303
  H      688.136     774.129      -2.412
  H      694.509     777.648       0.616
  H      686.157     776.482       1.525
  H      689.657     776.559       3.864
  H      690.764     775.227       2.083
  H      689.219     773.412      -0.282
  H      689.868     776.189      -1.438
  H      691.063     774.986      -3.188
  H      692.282     773.239      -1.362
  H      693.539     775.143      -0.386
  H      693.427     775.285      -2.162
  P      690.725     772.439      -4.118
  C      692.366     770.956      -2.793
  O      692.182     771.811      -3.923
  O      690.591     773.333      -5.313
  O      689.790     771.144      -4.273
  H      689.664     770.936      -5.219
  H      693.376     770.602      -2.774
  H      691.698     770.123      -2.863
  H      692.162     771.502      -1.896

 6  7  8  9  10  11  12  13  14  15  16  26  31  32  33  34  35 0
 6-311+G(2d,p)
 ****
 36  37 0
 6-311+G(2d,p)
 ****
 1  2  3  4  5  17  18  19  20  21  22  23  24  25 0
 3-21G
 ****
 27  28  29  30  38  39  40  41  42  43  44  45 0
 3-21G
 ****


