%nproc=1
%NoSave
%Mem=1900MB
#P OB98/GEN NMR

erre ene a

0 1
  C       55.544      15.405    -214.059
  O       55.029      14.094    -214.163
  H       54.875      16.089    -214.588
  H       56.536      15.461    -214.515
  H       55.601      15.706    -213.010
  P       55.932      12.922    -213.534
  C       53.991      11.291    -212.916
  O       55.062      11.597    -213.796
  C       53.315       9.997    -213.356
  O       52.592      10.194    -214.590
  C       54.285       8.852    -213.631
  O       54.743       8.218    -212.447
  C       53.397       7.936    -214.455
  O       52.474       7.252    -213.589
  C       52.665       8.959    -215.353
  N       53.338       9.186    -216.634
  C       52.864       8.455    -217.730
  O       51.934       7.662    -217.599
  N       53.478       8.618    -218.949
  C       54.471       9.445    -219.068
  N       55.051       9.556    -220.294
  C       54.992      10.245    -217.944
  C       54.387      10.066    -216.772
  O       55.777      13.133    -211.955
  O       57.343      12.855    -214.012
  H       52.994       6.894    -212.847
  H       56.198      12.381    -211.474
  H       55.828      10.912    -218.089
  H       54.717      10.621    -215.899
  H       51.636       8.639    -215.552
  H       53.957       7.172    -214.997
  H       55.127       9.176    -214.253
  H       52.581       9.720    -212.588
  H       54.713       8.948    -221.029
  H       53.275      12.120    -212.942
  H       55.933      10.030    -220.439
  H       54.366      11.176    -211.894
  P       56.329       8.034    -212.269
  C       55.999       7.918    -209.695
  O       56.560       7.316    -210.853
  O       56.839       9.528    -212.010
  O       57.026       7.397    -213.430
  H       57.692       9.691    -212.454
  H       56.237       7.327    -208.835
  H       54.936       7.978    -209.804
  H       56.401       8.902    -209.574

 6  7  8  9  10  11  12  13  14  15  16  26  30  31  32  33  35 0
 6-311+G(2d,p)
 ****
 37  38 0
 6-311+G(2d,p)
 ****
 1  2  3  4  5  17  18  19  20  21  22  23  24  25 0
 3-21G
 ****
 27  28  29  34  36  39  40  41  42  43  44  45  46 0
 3-21G
 ****


