%nproc=1
%NoSave
%Mem=1900MB
#P OB98/GEN NMR

erre ene a

0 1
  C     -899.195     952.495    -890.690
  O     -899.545     951.831    -891.900
  P     -898.445     950.818    -892.520
  C     -896.135     951.080    -893.680
  O     -897.235     951.704    -893.060
  C     -895.635     951.910    -894.870
  O     -895.185     953.239    -894.390
  C     -894.405     951.340    -895.560
  O     -894.745     950.251    -896.410
  C     -893.885     952.590    -896.280
  O     -894.665     952.822    -897.460
  C     -894.155     953.685    -895.250
  N     -889.655     956.153    -895.200
  C     -890.555     955.994    -896.190
  N     -891.735     955.300    -896.100
  C     -891.905     954.753    -894.910
  C     -891.045     954.813    -893.800
  C     -889.885     955.557    -893.990
  N     -888.915     955.740    -892.980
  N     -891.545     954.104    -892.710
  C     -892.685     953.662    -893.150
  N     -892.965     954.023    -894.430
  O     -899.185     950.309    -893.880
  O     -898.075     949.692    -891.600
  H     -895.605     952.777    -897.180
  H     -898.925     949.370    -894.030
  H     -890.375     956.479    -897.130
  H     -893.355     953.007    -892.550
  H     -894.505     954.641    -895.720
  H     -892.825     952.501    -896.580
  H     -893.625     950.981    -894.830
  H     -896.455     952.057    -895.590
  H     -896.465     950.098    -894.070
  H     -888.045     956.179    -893.280
  H     -889.025     955.173    -892.160
  H     -895.345     950.875    -892.950
  P     -893.565     949.344    -896.960
  C     -892.165     949.416    -899.120
  O     -893.085     950.103    -898.290
  O     -894.375     948.085    -897.550
  O     -892.505     949.002    -895.980
  H     -895.115     948.383    -898.130
  H     -891.955     950.009    -900.000
  H     -892.625     948.456    -899.440
  H     -891.205     949.216    -898.590
  H     -900.000     953.131    -890.386
  H     -898.315     953.084    -890.848
  H     -899.006     951.769    -889.927

 3  4  5  6  7  8  9  10  11  12  22  25  29  30  31  32 0
 6-311+G(2d,p)
 ****
 33  36  37 0
 6-311+G(2d,p)
 ****
 1  2  13  14  15  16  17  18  19  20  21  23  24  26 0
 3-21G
 ****
 27  28  34  35  38  39  40  41  42  43  44  45  46  47  48 0
 3-21G
 ****


