%nproc=1
%NoSave
%Mem=1900MB
#P OB98/GEN NMR

erre ene a

0 1
  C      -93.457      33.129    -148.635
  O      -93.918      34.146    -147.771
  H      -94.285      32.811    -149.274
  H      -93.115      32.269    -148.054
  H      -92.647      33.494    -149.271
  P      -92.856      34.919    -146.853
  C      -93.219      33.521    -144.713
  O      -92.332      33.865    -145.766
  C      -92.481      32.759    -143.606
  O      -92.099      31.446    -144.122
  C      -91.189      33.445    -143.119
  O      -91.017      33.083    -141.742
  C      -90.156      32.771    -144.003
  O      -88.839      33.019    -143.582
  C      -90.672      31.328    -143.934
  N      -90.099      30.411    -144.912
  C      -88.976      29.682    -144.533
  O      -88.435      29.752    -143.432
  N      -88.466      28.840    -145.487
  C      -88.964      28.650    -146.742
  O      -88.483      27.858    -147.542
  C      -90.146      29.454    -147.086
  C      -90.655      30.280    -146.168
  O      -93.310      36.228    -146.298
  O      -91.586      35.097    -147.814
  H      -91.561      36.009    -148.157
  H      -88.219      32.746    -144.292
  H      -87.655      28.300    -145.229
  H      -90.561      29.337    -148.077
  H      -91.532      30.879    -146.390
  H      -90.515      30.922    -142.929
  H      -90.223      33.163    -145.020
  H      -91.222      34.534    -143.209
  H      -93.174      32.583    -142.775
  H      -94.014      32.891    -145.128
  H      -93.666      34.434    -144.306
  P      -91.196      34.116    -140.526
  C      -88.815      35.084    -140.211
  O      -90.128      35.301    -140.717
  O      -91.149      33.478    -139.177
  O      -92.607      34.827    -140.780
  H      -92.976      35.133    -139.930
  H      -88.211      35.946    -140.404
  H      -88.384      34.231    -140.693
  H      -88.863      34.911    -139.156

 6  7  8  9  10  11  12  13  14  15  16  27  31  32  33  34  35 0
 6-311+G(2d,p)
 ****
 36  37 0
 6-311+G(2d,p)
 ****
 1  2  3  4  5  17  18  19  20  21  22  23  24  25 0
 3-21G
 ****
 26  28  29  30  38  39  40  41  42  43  44  45 0
 3-21G
 ****


