%nproc=1
%NoSave
%Mem=1900MB
#P OB98/GEN NMR

erre ene a

0 1
  C     -148.740    -289.541     -91.097
  O     -147.940    -288.613     -91.820
  P     -147.752    -288.868     -93.396
  C     -145.504    -290.037     -92.835
  O     -146.756    -290.121     -93.510
  C     -144.704    -291.321     -93.031
  O     -145.340    -292.402     -92.319
  C     -144.601    -291.791     -94.475
  O     -143.589    -291.092     -95.188
  C     -144.228    -293.253     -94.282
  O     -142.812    -293.362     -94.039
  C     -145.017    -293.633     -93.016
  N     -147.087    -298.147     -94.009
  C     -145.773    -297.811     -93.761
  N     -144.882    -298.828     -93.755
  N     -145.362    -296.590     -93.547
  C     -146.366    -295.680     -93.545
  C     -147.707    -295.887     -93.779
  C     -148.142    -297.241     -94.065
  O     -149.282    -297.585     -94.355
  N     -148.416    -294.722     -93.677
  C     -147.519    -293.814     -93.352
  N     -146.249    -294.346     -93.289
  O     -146.844    -287.632     -93.855
  O     -149.019    -288.952     -94.178
  H     -142.657    -294.228     -93.621
  H     -146.987    -287.451     -94.804
  H     -147.352    -299.106     -94.151
  H     -147.737    -292.778     -93.152
  H     -144.409    -294.237     -92.333
  H     -144.451    -293.870     -95.157
  H     -145.156    -299.804     -93.780
  H     -145.570    -291.723     -94.981
  H     -143.919    -298.609     -93.537
  H     -143.710    -291.175     -92.597
  H     -145.681    -289.888     -91.768
  H     -144.949    -289.178     -93.225
  P     -143.927    -290.692     -96.706
  C     -142.813    -292.793     -97.758
  O     -144.011    -292.083     -97.499
  O     -142.562    -290.033     -97.220
  O     -145.093    -289.774     -96.857
  H     -142.745    -289.404     -97.948
  H     -142.105    -292.698     -96.929
  H     -142.358    -292.409     -98.676
  H     -143.053    -293.852     -97.893
  H     -148.779    -289.252     -90.068
  H     -148.312    -290.519     -91.177
  H     -149.730    -289.550     -91.503

 3  4  5  6  7  8  9  10  11  12  23  26  30  31  33  0
 6-311+G(2d,p)
 ****
 35  36  37  38 0
 6-311+G(2d,p)
 ****
 1  2  13  14  15  16  17  18  19  20  21  22  24  25  27  28  29 0
 3-21G
 ****
 32  34  39  40  41  42  43  44  45  46  47  48  49 0
 3-21G
 ****


