%nproc=1
%NoSave
%Mem=1900MB
#P OB98/GEN NMR

erre ene a

0 1
  C     -375.631    -968.069     173.328
  O     -375.858    -969.179     172.493
  H     -374.631    -968.139     173.749
  H     -376.362    -968.051     174.135
  H     -375.698    -967.129     172.752
  P     -377.127    -969.186     171.517
  C     -378.758    -970.321     173.158
  O     -378.435    -969.132     172.465
  C     -379.799    -970.037     174.256
  O     -381.078    -969.757     173.615
  C     -380.024    -971.215     175.225
  O     -380.373    -970.655     176.494
  C     -381.217    -971.908     174.598
  O     -381.853    -972.777     175.514
  C     -382.030    -970.711     174.124
  N     -383.053    -971.071     173.130
  C     -384.304    -971.423     173.619
  O     -384.562    -971.480     174.825
  N     -385.227    -971.788     172.692
  C     -385.025    -971.834     171.334
  O     -385.891    -972.192     170.546
  C     -383.660    -971.504     170.877
  C     -382.756    -971.108     171.793
  O     -377.147    -970.269     170.491
  O     -377.117    -967.728     170.852
  H     -381.507    -973.699     175.406
  H     -377.496    -967.764     169.952
  H     -386.151    -972.034     173.025
  H     -383.463    -971.555     169.821
  H     -381.763    -970.852     171.482
  H     -382.556    -970.237     174.970
  H     -380.902    -972.524     173.736
  H     -379.151    -971.867     175.323
  H     -379.509    -969.127     174.790
  H     -377.842    -970.714     173.619
  H     -379.158    -971.066     172.456
  P     -379.331    -970.559     177.707
  C     -380.055    -972.810     178.739
  O     -378.977    -972.051     178.208
  O     -379.751    -969.630     178.803
  O     -377.966    -970.045     177.025
  H     -377.438    -969.553     177.682
  H     -379.700    -973.775     179.035
  H     -380.813    -972.923     177.993
  H     -380.463    -972.304     179.589

 6  7  8  9  10  11  12  13  14  15  16  26  31  32  33  34  35 0
 6-311+G(2d,p)
 ****
 36  37 0
 6-311+G(2d,p)
 ****
 1  2  3  4  5  17  18  19  20  21  22  23  24  25 0
 3-21G
 ****
 27  28  29  30  38  39  40  41  42  43  44  45 0
 3-21G
 ****


