%nproc=1
%NoSave
%Mem=1900MB
#P OB98/GEN NMR

erre ene a

0 1
  C     -300.093     -90.907     512.294
  O     -300.534     -89.984     511.310
  P     -299.849     -90.039     509.868
  C     -299.212     -87.517     510.110
  O     -299.805     -88.537     509.313
  C     -299.050     -86.242     509.280
  O     -297.994     -86.401     508.309
  C     -300.289     -85.861     508.476
  O     -301.268     -85.241     509.300
  C     -299.706     -84.943     507.422
  O     -299.561     -83.599     507.927
  C     -298.324     -85.582     507.160
  N     -298.279     -86.342     505.923
  C     -298.126     -85.593     504.760
  O     -298.061     -84.356     504.751
  N     -298.095     -86.305     503.583
  C     -298.254     -87.658     503.465
  O     -298.276     -88.236     502.377
  C     -298.439     -88.395     504.727
  C     -298.452     -87.716     505.871
  O     -300.948     -90.754     508.943
  O     -298.546     -90.756     509.831
  H     -299.075     -83.090     507.252
  H     -300.508     -91.320     508.282
  H     -297.965     -85.786     502.733
  H     -298.572     -89.468     504.670
  H     -298.595     -88.237     506.820
  H     -297.540     -84.796     507.118
  H     -300.337     -84.878     506.536
  H     -300.708     -86.759     507.997
  H     -298.765     -85.418     509.957
  H     -298.234     -87.860     510.462
  H     -299.845     -87.333     510.981
  P     -302.807     -85.581     508.995
  C     -303.324     -83.026     509.162
  O     -303.633     -84.339     509.578
  O     -303.066     -86.782     510.025
  O     -303.056     -85.933     507.561
  H     -302.542     -86.671     510.843
  H     -303.000     -82.992     508.106
  H     -302.519     -82.631     509.797
  H     -304.205     -82.393     509.281
  H     -300.639     -90.750     513.201
  H     -299.049     -90.761     512.477
  H     -300.258     -91.905     511.946

 3  4  5  6  7  8  9  10  11  12  13  23  28  29  30  31  32 0
 6-311+G(2d,p)
 ****
 33  34 0
 6-311+G(2d,p)
 ****
 1  2  14  15  16  17  18  19  20  21  22  24  25  26 0
 3-21G
 ****
 27  35  36  37  38  39  40  41  42  43  44  45 0
 3-21G
 ****


