%nproc=1
%NoSave
%Mem=1900MB
#P OB98/GEN NMR

erre ene a

0 1
  C     -198.152      63.363      -2.144
  O     -198.640      64.575      -1.592
  P     -200.200      64.764      -1.258
  C     -199.564      66.931      -0.002
  O     -200.380      66.335      -1.002
  C     -199.801      68.438       0.031
  O     -198.988      69.077      -0.973
  C     -201.234      68.860      -0.268
  O     -202.077      68.636       0.852
  C     -201.032      70.319      -0.656
  O     -200.888      71.133       0.518
  C     -199.692      70.261      -1.419
  N     -199.865      70.254      -2.869
  C     -198.992      71.059      -3.605
  O     -198.121      71.725      -3.047
  N     -199.100      71.066      -4.974
  C     -200.013      70.352      -5.555
  N     -200.030      70.344      -6.915
  C     -200.989      69.532      -4.813
  C     -200.856      69.527      -3.489
  O     -200.716      63.891      -0.165
  O     -200.938      64.554      -2.656
  H     -199.980      70.989       0.851
  H     -201.171      63.611      -2.842
  H     -201.742      68.965      -5.342
  H     -201.520      68.935      -2.873
  H     -199.061      71.113      -1.143
  H     -201.855      70.731      -1.249
  H     -201.625      68.301      -1.127
  H     -199.491      68.814       1.015
  H     -199.239      70.775      -7.381
  H     -198.515      66.739      -0.249
  H     -200.502      69.614      -7.434
  H     -199.789      66.475       0.967
  P     -203.661      68.659       0.603
  C     -203.853      70.209       2.675
  O     -204.198      69.995       1.319
  O     -204.195      67.469       1.530
  O     -204.065      68.492      -0.823
  H     -204.378      66.677       0.991
  H     -204.084      71.246       2.932
  H     -202.786      70.035       2.838
  H     -204.441      69.547       3.318
  H     -197.095      63.438      -2.291
  H     -198.631      63.181      -3.083
  H     -198.362      62.556      -1.474

 3  4  5  6  7  8  9  10  11  12  13  23  27  28  29  30  32 0
 6-311+G(2d,p)
 ****
 34  35 0
 6-311+G(2d,p)
 ****
 1  2  14  15  16  17  18  19  20  21  22  24  25  26 0
 3-21G
 ****
 31  33  36  37  38  39  40  41  42  43  44  45  46 0
 3-21G
 ****


