%nproc=1
%NoSave
%Mem=1900MB
#P OB98/GEN NMR

erre ene a

0 1
  C      -70.905    -114.426    -172.319
  O      -70.815    -113.835    -173.601
  H      -69.920    -114.807    -172.041
  H      -71.613    -115.260    -172.330
  H      -71.214    -113.684    -171.578
  P      -72.145    -113.233    -174.259
  C      -72.366    -115.301    -175.792
  O      -72.983    -114.490    -174.799
  C      -73.293    -115.465    -176.993
  O      -74.473    -116.205    -176.622
  C      -73.784    -114.147    -177.592
  O      -72.803    -113.593    -178.452
  C      -75.015    -114.626    -178.342
  O      -74.614    -115.278    -179.564
  C      -75.599    -115.661    -177.363
  N      -80.508    -114.719    -176.482
  C      -79.882    -115.152    -177.636
  N      -80.672    -115.330    -178.715
  N      -78.597    -115.378    -177.725
  C      -77.922    -115.091    -176.589
  C      -78.427    -114.640    -175.390
  C      -79.860    -114.458    -175.284
  O      -80.457    -114.099    -174.272
  N      -77.426    -114.370    -174.490
  C      -76.321    -114.709    -175.129
  N      -76.567    -115.145    -176.411
  O      -71.944    -112.154    -175.280
  O      -73.009    -112.727    -173.011
  H      -73.947    -115.947    -179.327
  H      -72.829    -111.789    -172.815
  H      -81.500    -114.555    -176.474
  H      -75.322    -114.663    -174.712
  H      -76.083    -116.495    -177.886
  H      -75.688    -113.813    -178.617
  H      -81.636    -115.032    -178.751
  H      -74.094    -113.442    -176.813
  H      -80.223    -115.590    -179.585
  H      -72.763    -116.063    -177.746
  H      -72.155    -116.274    -175.337
  H      -71.421    -114.855    -176.116
  P      -72.772    -112.021    -178.789
  C      -73.765    -112.406    -181.146
  O      -73.929    -111.798    -179.876
  O      -71.436    -111.493    -179.184
  O      -73.396    -111.327    -177.494
  H      -72.726    -111.166    -176.782
  H      -74.607    -112.174    -181.764
  H      -73.692    -113.467    -181.027
  H      -72.872    -112.036    -181.606

 6  7  8  9  10  11  12  13  14  15  26  29  33  34 0
 6-311+G(2d,p)
 ****
 36  38  39  40  41 0
 6-311+G(2d,p)
 ****
 1  2  3  4  5  16  17  18  19  20  21  22  23  24  25 0
 3-21G
 ****
 27  28  30  31  32  35  37  42  43  44  45  46  47 0
 3-21G
 ****
 48  49 0
 3-21G
 ****


