%nproc=1
%NoSave
%Mem=1900MB
#P OB98/GEN NMR

erre ene a

0 1
  C     -697.216     248.770    -742.911
  O     -696.976     250.140    -742.649
  H     -696.759     248.509    -743.864
  H     -698.291     248.587    -742.973
  H     -696.776     248.145    -742.124
  P     -697.354     250.690    -741.188
  C     -694.914     250.272    -740.389
  O     -696.298     250.042    -740.170
  C     -694.086     249.584    -739.306
  O     -694.237     248.142    -739.456
  C     -692.578     249.899    -739.376
  O     -692.068     249.959    -738.036
  C     -692.003     248.671    -740.067
  O     -690.627     248.459    -739.804
  C     -692.910     247.572    -739.509
  N     -692.888     246.359    -740.320
  C     -692.137     245.286    -739.841
  O     -691.557     245.255    -738.756
  N     -692.049     244.195    -740.687
  C     -692.616     244.100    -741.928
  O     -692.490     243.111    -742.643
  C     -693.389     245.266    -742.373
  C     -693.482     246.322    -741.564
  O     -698.714     249.917    -740.854
  O     -697.498     252.176    -741.079
  H     -699.485     250.431    -741.163
  H     -690.548     248.113    -738.900
  H     -691.498     243.418    -740.361
  H     -693.838     245.232    -743.352
  H     -694.034     247.209    -741.872
  H     -692.620     247.328    -738.471
  H     -692.131     248.764    -741.157
  H     -692.340     250.821    -739.906
  H     -694.494     249.847    -738.328
  H     -694.717     251.353    -740.360
  H     -694.641     249.891    -741.385
  P     -692.096     251.395    -737.305
  C     -693.698     250.589    -735.393
  O     -693.492     251.448    -736.506
  O     -692.313     252.373    -738.550
  O     -690.867     251.651    -736.499
  H     -692.879     251.993    -739.239
  H     -694.673     250.759    -734.987
  H     -692.960     250.791    -734.645
  H     -693.616     249.570    -735.709

 6  7  8  9  10  11  12  13  14  15  16  27  31  32  33  34  35 0
 6-311+G(2d,p)
 ****
 36  37 0
 6-311+G(2d,p)
 ****
 1  2  3  4  5  17  18  19  20  21  22  23  24  25 0
 3-21G
 ****
 26  28  29  30  38  39  40  41  42  43  44  45 0
 3-21G
 ****


