%nproc=1
%NoSave
%Mem=1900MB
#P OB98/GEN NMR

erre ene a

0 1
  C        1.379    -284.459    -255.886
  O        0.276    -285.121    -256.471
  H        1.759    -285.069    -255.062
  H        1.069    -283.489    -255.493
  H        2.176    -284.324    -256.621
  P       -0.365    -284.452    -257.780
  C       -2.466    -283.289    -256.772
  O       -1.949    -284.379    -257.518
  C       -3.955    -283.509    -256.501
  O       -4.651    -283.601    -257.774
  C       -4.247    -284.797    -255.724
  O       -5.339    -284.564    -254.828
  C       -4.669    -285.770    -256.809
  O       -5.476    -286.841    -256.337
  C       -5.405    -284.832    -257.772
  N       -5.507    -285.378    -259.122
  C       -6.694    -286.014    -259.469
  O       -7.689    -286.084    -258.748
  N       -6.714    -286.596    -260.712
  C       -5.684    -286.620    -261.605
  O       -5.757    -287.176    -262.695
  C       -4.454    -285.940    -261.181
  C       -4.421    -285.360    -259.978
  O       -0.231    -285.601    -258.885
  O        0.248    -283.163    -258.213
  H        0.616    -285.516    -259.364
  H       -6.119    -286.473    -255.695
  H       -7.570    -287.059    -260.979
  H       -3.612    -285.946    -261.860
  H       -3.525    -284.861    -259.628
  H       -6.407    -284.601    -257.390
  H       -3.785    -286.200    -257.291
  H       -3.384    -285.160    -255.165
  H       -4.355    -282.631    -255.978
  H       -2.338    -282.367    -257.349
  H       -1.917    -283.201    -255.829
  P       -4.982    -284.120    -253.327
  C       -6.154    -286.115    -252.112
  O       -6.143    -284.728    -252.400
  O       -5.293    -282.554    -253.380
  O       -3.587    -284.479    -252.930
  H       -6.061    -282.328    -253.932
  H       -6.991    -286.343    -251.486
  H       -5.249    -286.382    -251.608
  H       -6.230    -286.668    -253.025

 6  7  8  9  10  11  12  13  14  15  16  27  31  32  33  34  35 0
 6-311+G(2d,p)
 ****
 36  37 0
 6-311+G(2d,p)
 ****
 1  2  3  4  5  17  18  19  20  21  22  23  24  25 0
 3-21G
 ****
 26  28  29  30  38  39  40  41  42  43  44  45 0
 3-21G
 ****


