%nproc=1
%NoSave
%Mem=1900MB
#P OB98/GEN NMR

erre ene a

0 1
  C     -279.137    -156.745      80.020
  O     -280.089    -157.538      79.343
  H     -278.613    -157.371      80.745
  H     -279.641    -155.937      80.556
  H     -278.403    -156.328      79.326
  P     -280.794    -156.949      78.030
  C     -278.771    -157.589      76.566
  O     -280.165    -157.741      76.784
  C     -278.437    -157.700      75.074
  O     -277.049    -157.304      74.875
  C     -278.596    -159.118      74.505
  O     -278.971    -158.986      73.127
  C     -277.182    -159.655      74.616
  O     -276.993    -160.787      73.797
  C     -276.373    -158.409      74.246
  N     -274.975    -158.508      74.660
  C     -274.140    -159.265      73.851
  O     -274.531    -159.863      72.849
  N     -272.834    -159.358      74.250
  C     -272.313    -158.826      75.393
  O     -271.141    -158.965      75.720
  C     -273.254    -158.071      76.235
  C     -274.521    -157.944      75.836
  O     -280.778    -155.463      77.897
  O     -282.286    -157.526      78.091
  H     -277.693    -161.453      73.972
  H     -282.904    -156.903      77.664
  H     -272.213    -159.895      73.668
  H     -272.874    -157.644      77.154
  H     -275.240    -157.394      76.433
  H     -276.393    -158.244      73.161
  H     -276.965    -159.958      75.646
  H     -279.328    -159.720      75.045
  H     -279.054    -156.982      74.524
  H     -278.255    -158.379      77.121
  H     -278.446    -156.615      76.947
  P     -280.505    -158.951      72.661
  C     -280.987    -156.456      73.083
  O     -280.845    -157.484      72.106
  O     -281.471    -159.455      73.686
  O     -280.550    -159.864      71.346
  H     -281.438    -160.258      71.250
  H     -281.211    -155.530      72.596
  H     -280.074    -156.358      73.633
  H     -281.782    -156.708      73.753

 6  7  8  9  10  11  12  13  14  15  16  26  31  32  33  34  35 0
 6-311+G(2d,p)
 ****
 36  37 0
 6-311+G(2d,p)
 ****
 1  2  3  4  5  17  18  19  20  21  22  23  24  25 0
 3-21G
 ****
 27  28  29  30  38  39  40  41  42  43  44  45 0
 3-21G
 ****


