%nproc=1
%NoSave
%Mem=1900MB
#P OB98/GEN NMR

erre ene a

0 1
  C       -8.613    -320.314      -4.207
  O       -8.232    -321.611      -4.660
  P       -9.365    -322.532      -5.319
  C      -10.594    -323.176      -3.095
  O      -10.640    -322.516      -4.346
  C      -11.969    -323.136      -2.400
  O      -11.866    -323.848      -1.136
  C      -12.476    -321.741      -2.038
  O      -13.888    -321.810      -1.807
  C      -11.761    -321.483      -0.726
  O      -12.381    -320.433       0.011
  C      -11.788    -322.879      -0.058
  N      -10.604    -323.154       0.784
  C      -10.200    -322.183       1.699
  O      -10.773    -321.106       1.854
  N       -9.077    -322.470       2.430
  C       -8.357    -323.624       2.363
  O       -7.306    -323.793       2.975
  C       -8.900    -324.668       1.486
  C       -9.973    -324.389       0.745
  O       -8.778    -324.012      -5.180
  O       -9.672    -322.180      -6.740
  H      -13.227    -320.799       0.363
  H       -8.460    -324.333      -6.045
  H       -8.737    -321.750       3.048
  H       -8.393    -325.623       1.460
  H      -10.378    -325.139       0.069
  H      -12.676    -322.995       0.581
  H      -10.732    -321.181      -0.919
  H      -12.255    -320.970      -2.780
  H      -12.703    -323.665      -3.020
  H       -9.833    -322.718      -2.457
  H      -10.296    -324.222      -3.240
  P      -14.843    -320.913      -2.735
  C      -14.690    -318.681      -1.460
  O      -14.301    -319.406      -2.615
  O      -16.308    -321.094      -2.525
  O      -14.396    -321.327      -4.219
  H      -15.090    -321.080      -4.851
  H      -13.909    -317.952      -1.223
  H      -14.826    -319.346      -0.598
  H      -15.624    -318.152      -1.662
  H       -7.761    -319.816      -3.793
  H       -9.371    -320.406      -3.457
  H       -8.993    -319.746      -5.030

 3  4  5  6  7  8  9  10  11  12  13  23  28  29  30  31  32 0
 6-311+G(2d,p)
 ****
 33  34 0
 6-311+G(2d,p)
 ****
 1  2  14  15  16  17  18  19  20  21  22  24  25  26  27 0
 3-21G
 ****
 35  36  37  38  39  40  41  42  43  44  45 0
 3-21G
 ****


