%nproc=1
%NoSave
%Mem=1900MB
#P OB98/GEN NMR

erre ene a

0 1
  C      575.953      92.569     175.318
  O      576.456      93.671     174.553
  P      577.740      93.402     173.626
  C      576.466      93.512     171.339
  O      577.412      94.104     172.222
  C      576.096      94.503     170.234
  O      575.114      95.455     170.710
  C      577.260      95.342     169.734
  O      578.127      94.587     168.899
  C      576.522      96.472     169.026
  O      576.102      96.050     167.718
  C      575.292      96.663     169.937
  N      575.395      97.840     170.799
  C      574.909      99.026     170.261
  O      574.440      99.112     169.130
  N      574.996     100.127     171.074
  C      575.540     100.159     172.322
  O      575.589     101.176     173.004
  C      576.088      98.886     172.812
  C      575.988      97.797     172.042
  O      577.587      91.837     173.336
  O      579.021      93.806     174.275
  H      576.662      91.555     173.255
  H      575.404      96.676     167.437
  H      574.640     100.998     170.706
  H      576.549      98.877     173.793
  H      576.388      96.849     172.387
  H      574.381      96.770     169.332
  H      577.141      97.363     168.898
  H      577.826      95.744     170.584
  H      575.654      93.938     169.406
  H      575.568      93.232     171.886
  H      576.902      92.599     170.921
  P      579.511      95.279     168.474
  C      581.024      93.405     169.493
  O      580.592      94.099     168.343
  O      579.918      96.033     169.825
  O      579.389      96.172     167.280
  H      579.791      95.486     170.619
  H      581.463      92.452     169.181
  H      580.195      93.205     170.176
  H      581.786      93.991     170.006
  H      575.103      92.887     175.885
  H      576.715      92.219     175.983
  H      575.665      91.778     174.657

 3  4  5  6  7  8  9  10  11  12  13  24  28  29  30  31  32 0
 6-311+G(2d,p)
 ****
 33  34 0
 6-311+G(2d,p)
 ****
 1  2  14  15  16  17  18  19  20  21  22  23  25  26  27 0
 3-21G
 ****
 35  36  37  38  39  40  41  42  43  44  45 0
 3-21G
 ****


