%nproc=1
%NoSave
%Mem=1900MB
#P OB98/GEN NMR

erre ene a

0 1
  C      751.745    -813.843    -629.322
  O      751.488    -813.896    -630.713
  H      750.870    -814.226    -628.800
  H      751.910    -812.808    -629.031
  H      752.612    -814.451    -629.054
  P      752.724    -813.748    -631.713
  C      752.715    -811.148    -631.671
  O      753.448    -812.337    -631.390
  C      753.131    -810.022    -630.733
  O      754.547    -809.744    -630.882
  C      752.365    -808.721    -631.108
  O      752.201    -807.859    -629.977
  C      753.335    -808.045    -632.087
  O      753.123    -806.642    -632.204
  C      754.677    -808.430    -631.494
  N      758.931    -806.185    -633.212
  C      758.064    -805.757    -632.242
  N      758.325    -804.553    -631.659
  N      756.986    -806.438    -631.874
  C      756.796    -807.576    -632.591
  C      757.582    -808.086    -633.606
  C      758.788    -807.350    -633.962
  O      759.585    -807.663    -634.837
  N      757.065    -809.263    -634.110
  C      755.964    -809.432    -633.418
  N      755.770    -808.446    -632.462
  O      752.029    -813.438    -633.140
  O      753.660    -814.925    -631.818
  H      753.606    -806.215    -631.491
  H      752.615    -813.698    -633.864
  H      759.737    -805.626    -633.457
  H      755.280    -810.282    -633.547
  H      754.966    -807.735    -630.700
  H      753.163    -808.486    -633.083
  H      759.031    -803.936    -632.023
  H      751.410    -808.920    -631.545
  H      757.562    -804.095    -631.178
  H      752.986    -810.301    -629.689
  H      751.648    -811.384    -631.532
  H      752.855    -810.863    -632.714
  P      750.692    -807.461    -629.583
  C      750.423    -805.401    -631.212
  O      750.041    -806.724    -630.859
  O      750.901    -806.283    -628.515
  O      749.894    -808.589    -629.032
  H      750.703    -806.590    -627.619
  H      749.881    -805.093    -632.082
  H      751.473    -805.376    -631.418
  H      750.203    -804.738    -630.402

 6  7  8  9  10  11  12  13  14  15  26  29  33  34 0
 6-311+G(2d,p)
 ****
 36  38  39  40  41 0
 6-311+G(2d,p)
 ****
 1  2  3  4  5  16  17  18  19  20  21  22  23  24  25 0
 3-21G
 ****
 27  28  30  31  32  35  37  42  43  44  45  46  47 0
 3-21G
 ****
 48  49 0
 3-21G
 ****


