%nproc=1
%NoSave
%Mem=1900MB
#P OB98/GEN NMR

erre ene a

0 1
  C     -490.932     -63.523    -484.289
  O     -491.284     -63.991    -483.004
  H     -491.805     -63.036    -484.734
  H     -490.637     -64.360    -484.927
  H     -490.119     -62.795    -484.229
  P     -490.135     -64.599    -482.063
  C     -489.970     -62.953    -480.084
  O     -489.422     -63.359    -481.334
  C     -489.802     -61.443    -479.915
  O     -490.751     -60.745    -480.750
  C     -490.066     -60.950    -478.497
  O     -488.989     -61.256    -477.630
  C     -490.295     -59.473    -478.746
  O     -489.053     -58.765    -478.856
  C     -491.038     -59.483    -480.102
  N     -492.480     -59.289    -479.939
  C     -492.961     -58.010    -480.193
  O     -492.245     -57.072    -480.552
  N     -494.297     -57.817    -479.966
  C     -495.144     -58.720    -479.389
  O     -496.263     -58.429    -478.978
  C     -494.596     -60.070    -479.198
  C     -493.308     -60.286    -479.464
  O     -489.212     -65.571    -482.717
  O     -490.959     -65.286    -480.869
  H     -490.986     -66.250    -481.015
  H     -488.517     -59.055    -478.086
  H     -494.645     -56.879    -480.112
  H     -495.258     -60.840    -478.811
  H     -492.873     -61.273    -479.303
  H     -490.652     -58.693    -480.758
  H     -490.869     -59.015    -477.937
  H     -490.991     -61.396    -478.119
  H     -488.791     -61.169    -480.245
  H     -489.432     -63.469    -479.282
  H     -491.026     -63.231    -480.049
  P     -489.189     -62.302    -476.436
  C     -486.899     -63.373    -476.906
  O     -488.297     -63.600    -476.739
  O     -490.612     -62.588    -476.072
  O     -488.413     -61.626    -475.203
  H     -489.010     -61.624    -474.424
  H     -486.408     -64.303    -477.102
  H     -486.499     -62.940    -476.013
  H     -486.742     -62.706    -477.728

 6  7  8  9  10  11  12  13  14  15  16  27  31  32  33  34  35 0
 6-311+G(2d,p)
 ****
 36  37 0
 6-311+G(2d,p)
 ****
 1  2  3  4  5  17  18  19  20  21  22  23  24  25 0
 3-21G
 ****
 26  28  29  30  38  39  40  41  42  43  44  45 0
 3-21G
 ****


