%nproc=1
%NoSave
%Mem=1900MB
#P OB98/GEN NMR

erre ene a

0 1
  C      333.195     846.024     -50.219
  O      332.995     844.625     -50.076
  P      334.201     843.595     -50.200
  C      332.859     842.341     -52.001
  O      334.097     842.971     -51.685
  C      333.061     841.274     -53.086
  O      333.418     841.891     -54.343
  C      334.167     840.267     -52.781
  O      333.719     839.312     -51.827
  C      334.443     839.714     -54.168
  O      333.503     838.682     -54.515
  C      334.245     840.961     -55.060
  N      335.506     841.557     -55.480
  C      335.556     842.029     -56.782
  O      334.567     841.911     -57.556
  N      336.730     842.589     -57.248
  C      337.756     842.636     -56.460
  N      338.896     843.186     -56.977
  C      337.755     842.106     -55.077
  C      336.616     841.583     -54.665
  O      334.328     842.609     -49.089
  O      335.487     844.571     -50.337
  H      332.630     838.954     -54.152
  H      335.709     844.987     -49.466
  H      338.648     842.163     -54.474
  H      336.522     841.177     -53.657
  H      333.686     840.686     -55.966
  H      335.445     839.267     -54.235
  H      335.046     840.799     -52.411
  H      332.093     840.739     -53.219
  H      338.866     843.515     -57.938
  H      332.165     843.085     -52.369
  H      339.769     843.235     -56.478
  H      332.436     841.886     -51.097
  P      334.742     838.218     -51.279
  C      333.381     836.320     -52.350
  O      334.645     836.936     -52.251
  O      334.650     837.934     -49.820
  O      336.184     838.828     -51.636
  H      336.777     838.711     -50.863
  H      333.359     835.711     -53.260
  H      332.581     837.077     -52.421
  H      333.216     835.677     -51.476
  H      332.261     846.532     -50.100
  H      333.592     846.230     -51.191
  H      333.883     846.364     -49.473

 3  4  5  6  7  8  9  10  11  12  13  23  27  28  29  30  32 0
 6-311+G(2d,p)
 ****
 34  35 0
 6-311+G(2d,p)
 ****
 1  2  14  15  16  17  18  19  20  21  22  24  25  26 0
 3-21G
 ****
 31  33  36  37  38  39  40  41  42  43  44  45  46 0
 3-21G
 ****


