%nproc=1
%NoSave
%Mem=1900MB
#P OB98/GEN NMR

erre ene a

0 1
  C      -36.306     103.303     258.532
  O      -36.281     104.670     258.105
  P      -34.956     105.142     257.321
  C      -35.895     104.755     254.932
  O      -34.925     104.389     255.900
  C      -35.320     105.770     253.942
  O      -34.238     105.222     253.162
  C      -36.340     106.287     252.939
  O      -37.154     107.284     253.537
  C      -35.442     106.821     251.831
  O      -35.000     108.164     252.119
  C      -34.256     105.848     251.851
  N      -32.407     104.406     247.353
  C      -32.259     105.607     248.034
  N      -31.492     106.537     247.433
  N      -32.811     105.856     249.187
  C      -33.555     104.827     249.660
  C      -33.758     103.589     249.091
  C      -33.136     103.322     247.814
  O      -33.222     102.275     247.187
  N      -34.527     102.782     249.898
  C      -34.893     103.583     250.887
  N      -34.279     104.814     250.829
  O      -33.767     104.448     258.155
  O      -34.794     106.623     257.272
  H      -34.472     108.492     251.362
  H      -33.265     105.129     258.640
  H      -31.963     104.270     246.463
  H      -35.568     103.316     251.689
  H      -33.300     106.369     251.734
  H      -35.973     106.876     250.872
  H      -31.025     106.412     246.550
  H      -36.948     105.454     252.563
  H      -31.351     107.423     247.925
  H      -34.921     106.602     254.534
  H      -36.777     105.182     255.428
  H      -36.234     103.847     254.415
  P      -38.731     107.026     253.610
  C      -38.621     106.189     256.074
  O      -38.982     105.913     254.726
  O      -39.042     106.274     252.224
  O      -39.557     108.266     253.745
  H      -39.853     106.644     251.825
  H      -39.285     105.633     256.741
  H      -38.706     107.259     256.294
  H      -37.600     105.859     256.236
  H      -37.228     103.104     259.038
  H      -35.488     103.122     259.197
  H      -36.221     102.662     257.680

 3  4  5  6  7  8  9  10  11  12  23  26  30  31 0
 6-311+G(2d,p)
 ****
 33  35  36  37  38 0
 6-311+G(2d,p)
 ****
 1  2  13  14  15  16  17  18  19  20  21  22  24  25 0
 3-21G
 ****
 27  28  29  32  34  39  40  41  42  43  44  45  46  47  48  49 0
 3-21G
 ****


