%nproc=1
%NoSave
%Mem=1900MB
#P OB98/GEN NMR

erre ene a

0 1
  C       68.968    -377.912     325.532
  O       67.792    -377.220     325.977
  P       67.958    -375.877     326.850
  C       67.791    -377.293     329.049
  O       67.366    -376.151     328.321
  C       67.255    -377.235     330.486
  O       67.804    -376.093     331.186
  C       65.745    -377.065     330.586
  O       65.055    -378.281     330.327
  C       65.587    -376.581     332.021
  O       65.598    -377.685     332.942
  C       66.851    -375.714     332.201
  N       66.559    -374.283     332.144
  C       66.725    -373.573     333.333
  O       67.031    -374.101     334.398
  N       66.485    -372.220     333.253
  C       66.042    -371.545     332.157
  O       65.826    -370.340     332.158
  C       65.808    -372.368     330.949
  C       66.075    -373.670     331.007
  O       66.826    -374.929     326.214
  O       69.296    -375.226     326.792
  H       65.732    -377.311     333.831
  H       67.095    -373.994     326.324
  H       66.624    -371.687     334.099
  H       65.439    -371.867     330.068
  H       65.908    -374.289     330.126
  H       67.327    -375.935     333.165
  H       64.650    -376.038     332.181
  H       65.409    -376.276     329.898
  H       67.576    -378.149     331.009
  H       68.886    -377.316     329.080
  H       67.429    -378.194     328.541
  P       64.680    -378.579     328.790
  C       62.108    -378.398     329.233
  O       63.207    -379.196     328.831
  O       65.643    -379.823     328.478
  O       64.881    -377.402     327.896
  H       65.778    -380.390     329.259
  H       62.239    -377.360     328.934
  H       61.998    -378.460     330.317
  H       61.200    -378.790     328.762
  H       68.682    -378.776     324.970
  H       69.547    -378.214     326.380
  H       69.552    -377.262     324.915

 3  4  5  6  7  8  9  10  11  12  13  23  28  29  30  31  32 0
 6-311+G(2d,p)
 ****
 33  34 0
 6-311+G(2d,p)
 ****
 1  2  14  15  16  17  18  19  20  21  22  24  25  26 0
 3-21G
 ****
 27  35  36  37  38  39  40  41  42  43  44  45 0
 3-21G
 ****


