%nproc=1
%NoSave
%Mem=1900MB
#P OB98/GEN NMR

erre ene a

0 1
  C     -509.779     259.261     513.142
  O     -509.794     260.634     512.748
  P     -511.099     261.171     511.989
  C     -509.558     263.210     511.400
  O     -510.575     262.308     510.984
  C     -508.269     262.962     510.612
  O     -507.734     261.646     510.924
  C     -508.454     262.973     509.100
  O     -508.614     264.293     508.609
  C     -507.187     262.271     508.656
  O     -506.070     263.182     508.657
  C     -506.992     261.216     509.763
  N     -507.379     259.868     509.355
  C     -506.392     259.131     508.691
  O     -505.273     259.575     508.439
  N     -506.748     257.866     508.310
  C     -507.965     257.290     508.497
  O     -508.227     256.139     508.147
  C     -508.986     258.134     509.149
  C     -508.647     259.358     509.548
  O     -511.822     261.984     513.157
  O     -511.908     260.083     511.368
  H     -511.202     262.421     513.767
  H     -505.913     263.427     509.590
  H     -506.044     257.306     507.845
  H     -509.977     257.711     509.291
  H     -509.379     260.007     510.027
  H     -505.935     261.184     510.076
  H     -507.268     261.854     507.639
  H     -509.322     262.373     508.823
  H     -507.534     263.709     510.914
  H     -509.353     263.083     512.465
  H     -509.912     264.235     511.252
  P     -510.075     264.696     508.073
  C     -509.277     267.113     508.693
  O     -510.050     266.287     507.851
  O     -510.954     264.498     509.395
  O     -510.522     263.889     506.904
  H     -510.538     264.867     510.191
  H     -509.113     268.071     508.189
  H     -508.299     266.663     508.900
  H     -509.813     267.295     509.634
  H     -508.855     259.041     513.634
  H     -509.878     258.640     512.276
  H     -510.593     259.073     513.811

 3  4  5  6  7  8  9  10  11  12  13  24  28  29  30  31  32 0
 6-311+G(2d,p)
 ****
 33  34 0
 6-311+G(2d,p)
 ****
 1  2  14  15  16  17  18  19  20  21  22  23  25  26  27 0
 3-21G
 ****
 35  36  37  38  39  40  41  42  43  44  45 0
 3-21G
 ****


