%nproc=1
%NoSave
%Mem=1900MB
#P OB98/GEN NMR

erre ene a

0 1
  C      261.898     227.641     297.909
  O      260.937     228.649     298.255
  P      259.902     228.501     299.472
  C      260.181     227.755     301.940
  O      260.749     228.467     300.842
  C      260.866     228.150     303.250
  O      262.282     227.841     303.191
  C      260.823     229.633     303.590
  O      259.539     230.057     304.017
  C      261.907     229.729     304.661
  O      261.394     229.383     305.954
  C      262.918     228.660     304.199
  N      264.159     229.234     303.698
  C      265.307     228.447     303.803
  O      265.262     227.354     304.376
  N      266.485     228.922     303.276
  C      266.529     230.120     302.783
  N      267.719     230.529     302.257
  C      265.375     231.035     302.775
  C      264.232     230.536     303.241
  O      258.951     227.361     299.327
  O      259.123     229.897     299.539
  H      258.244     229.765     299.938
  H      261.393     228.406     306.008
  H      265.470     232.042     302.390
  H      263.330     231.135     303.259
  H      263.150     227.976     305.023
  H      262.325     230.742     304.737
  H      261.133     230.216     302.710
  H      260.414     227.561     304.061
  H      268.489     229.871     302.266
  H      260.327     226.683     301.772
  H      267.857     231.435     301.827
  H      259.104     227.960     301.980
  P      258.784     231.134     303.103
  C      257.122     231.073     301.107
  O      257.909     230.335     302.026
  O      259.962     231.779     302.230
  O      258.043     232.182     303.866
  H      259.813     232.737     302.129
  H      257.000     230.476     300.200
  H      257.597     232.021     300.847
  H      256.140     231.264     301.541
  H      262.471     227.969     297.067
  H      261.389     226.733     297.662
  H      262.550     227.470     298.740

 3  4  5  6  7  8  9  10  11  12  13  24  27  28  29  30  32 0
 6-311+G(2d,p)
 ****
 34  35 0
 6-311+G(2d,p)
 ****
 1  2  14  15  16  17  18  19  20  21  22  23  25  26 0
 3-21G
 ****
 31  33  36  37  38  39  40  41  42  43  44  45  46 0
 3-21G
 ****


