%nproc=1
%NoSave
%Mem=1900MB
#P OB98/GEN NMR

erre ene a

0 1
  C      -33.155      19.213    -107.458
  O      -33.126      17.794    -107.297
  P      -31.710      17.137    -106.925
  C      -32.727      15.260    -105.456
  O      -31.938      15.584    -106.591
  C      -32.625      13.774    -105.095
  O      -33.253      12.949    -106.110
  C      -31.185      13.281    -104.938
  O      -31.184      12.277    -103.920
  C      -30.902      12.620    -106.273
  O      -29.819      11.698    -106.175
  C      -32.274      11.995    -106.576
  N      -32.460      11.676    -107.990
  C      -32.006      10.430    -108.424
  O      -31.411       9.680    -107.646
  N      -32.194      10.075    -109.735
  C      -32.740      10.916    -110.557
  N      -32.897      10.509    -111.846
  C      -33.182      12.267    -110.156
  C      -33.016      12.572    -108.871
  O      -31.361      17.785    -105.504
  O      -30.639      17.419    -107.930
  H      -29.052      12.171    -105.784
  H      -30.453      18.140    -105.513
  H      -33.615      12.942    -110.879
  H      -33.310      13.536    -108.482
  H      -32.410      11.070    -106.003
  H      -30.649      13.377    -107.025
  H      -30.478      14.073    -104.676
  H      -33.172      13.612    -104.158
  H      -32.589       9.572    -112.081
  H      -33.773      15.508    -105.649
  H      -33.309      11.080    -112.567
  H      -32.417      15.890    -104.616
  P      -31.140      12.747    -102.389
  C      -32.956      11.037    -101.772
  O      -31.624      11.465    -101.554
  O      -32.437      13.688    -102.305
  O      -29.924      13.453    -101.895
  H      -32.487      14.101    -101.424
  H      -33.112      10.095    -101.241
  H      -33.135      10.877    -102.838
  H      -33.655      11.781    -101.379
  H      -34.149      19.524    -107.703
  H      -32.489      19.496    -108.246
  H      -32.849      19.682    -106.546

 3  4  5  6  7  8  9  10  11  12  13  21  23  27  28  29  30  32 0
 6-311+G(2d,p)
 ****
 34  35 0
 6-311+G(2d,p)
 ****
 1  2  14  15  16  17  18  19  20  22  24  25  26 0
 3-21G
 ****
 31  33  36  37  38  39  40  41  42  43  44  45  46 0
 3-21G
 ****


