%nproc=1
%NoSave
%Mem=1900MB
#P OB98/GEN NMR

erre ene a

0 1
  C     -865.813      -9.506      29.894
  O     -866.396      -8.247      30.177
  H     -866.579     -10.210      29.555
  H     -865.071      -9.377      29.098
  H     -865.309      -9.893      30.784
  P     -867.495      -8.216      31.345
  C     -867.177      -5.784      32.200
  O     -867.981      -6.689      31.465
  C     -868.010      -4.604      32.680
  O     -868.419      -3.791      31.563
  C     -869.310      -4.986      33.397
  O     -869.076      -5.354      34.746
  C     -870.083      -3.678      33.297
  O     -869.616      -2.759      34.300
  C     -869.690      -3.172      31.901
  N     -872.525      -1.350      28.040
  C     -871.593      -0.774      28.838
  N     -870.869      -1.328      29.824
  C     -871.156      -2.631      29.955
  C     -872.065      -3.374      29.209
  C     -872.765      -2.678      28.207
  N     -873.779      -3.274      27.447
  N     -872.108      -4.685      29.646
  C     -871.260      -4.726      30.650
  N     -870.662      -3.519      30.872
  O     -866.610      -8.438      32.670
  O     -868.581      -9.236      31.228
  H     -870.058      -1.906      34.124
  H     -866.641      -9.379      32.921
  H     -871.414       0.285      28.649
  H     -871.051      -5.611      31.243
  H     -869.542      -2.089      31.873
  H     -871.162      -3.808      33.451
  H     -869.852      -5.770      32.840
  H     -867.380      -3.978      33.334
  H     -866.361      -5.414      31.561
  H     -874.482      -2.619      27.145
  H     -874.089      -4.175      27.800
  H     -866.744      -6.316      33.053
  P     -870.203      -6.221      35.488
  C     -868.395      -8.055      35.812
  O     -869.436      -7.280      36.418
  O     -870.800      -7.124      34.302
  O     -871.284      -5.436      36.157
  H     -871.774      -6.992      34.241
  H     -867.972      -8.715      36.540
  H     -867.635      -7.401      35.439
  H     -868.801      -8.628      35.004

 6  7  8  9  10  11  12  13  14  15  25  28  32  33  34  35 0
 6-311+G(2d,p)
 ****
 36  39  40 0
 6-311+G(2d,p)
 ****
 1  2  3  4  5  16  17  18  19  20  21  22  23  24 0
 3-21G
 ****
 26  27  29  30  31  37  38  41  42  43  44  45  46  47  48 0
 3-21G
 ****


