%nproc=1
%NoSave
%Mem=1900MB
#P OB98/GEN NMR

erre ene a

0 1
  C     -490.988     131.420    1048.513
  O     -491.615     131.432    1049.775
  P     -491.808     132.804    1050.582
  C     -493.653     133.865    1052.027
  O     -493.289     132.775    1051.184
  C     -494.924     133.532    1052.808
  O     -496.044     133.306    1051.901
  C     -494.839     132.247    1053.621
  O     -493.937     132.238    1054.712
  C     -496.306     131.992    1053.926
  O     -496.753     132.784    1055.034
  C     -496.980     132.456    1052.614
  N     -497.427     131.323    1051.792
  C     -498.447     130.563    1052.331
  O     -498.990     130.789    1053.424
  N     -498.849     129.483    1051.582
  C     -498.295     129.083    1050.390
  O     -498.655     128.085    1049.800
  C     -497.188     129.924    1049.892
  C     -496.813     130.996    1050.597
  O     -491.464     134.043    1049.817
  O     -490.906     132.583    1051.886
  H     -497.674     132.517    1055.232
  H     -491.169     131.823    1052.440
  H     -499.591     128.899    1051.963
  H     -496.745     129.640    1048.945
  H     -496.012     131.625    1050.255
  H     -497.859     133.075    1052.844
  H     -496.488     130.942    1054.193
  H     -494.514     131.442    1052.962
  H     -495.184     134.396    1053.428
  H     -493.845     134.753    1051.401
  H     -492.830     134.096    1052.705
  P     -493.055     130.963    1055.109
  C     -491.074     130.454    1056.713
  O     -491.919     131.435    1056.145
  O     -492.641     130.064    1053.989
  O     -494.055     130.166    1056.081
  H     -493.883     129.216    1055.995
  H     -490.393     130.950    1057.414
  H     -490.468     129.963    1055.938
  H     -491.663     129.710    1057.262
  H     -490.955     130.417    1048.141
  H     -489.992     131.799    1048.606
  H     -491.541     132.035    1047.834

 3  4  5  6  7  8  9  10  11  12  13  23  28  29  30  31  32 0
 6-311+G(2d,p)
 ****
 33  34 0
 6-311+G(2d,p)
 ****
 1  2  14  15  16  17  18  19  20  21  22  24  25  26  27 0
 3-21G
 ****
 35  36  37  38  39  40  41  42  43  44  45 0
 3-21G
 ****


