%nproc=1
%NoSave
%Mem=1900MB
#P OB98/GEN NMR

erre ene a

0 1
  C      -45.956    -181.220    -379.963
  O      -45.897    -181.907    -378.709
  P      -44.956    -183.205    -378.655
  C      -45.292    -185.775    -378.566
  O      -45.905    -184.502    -378.730
  C      -45.967    -186.837    -379.444
  O      -47.354    -187.047    -379.036
  C      -45.990    -186.480    -380.936
  O      -45.858    -187.711    -381.661
  C      -47.397    -185.944    -381.130
  O      -47.777    -185.955    -382.505
  C      -48.169    -186.896    -380.224
  N      -52.923    -186.443    -381.865
  C      -51.793    -186.887    -382.524
  N      -51.964    -187.323    -383.789
  N      -50.601    -186.906    -381.982
  C      -50.587    -186.478    -380.695
  C      -51.642    -186.028    -379.931
  C      -52.947    -185.980    -380.551
  O      -53.979    -185.601    -380.014
  N      -51.234    -185.709    -378.656
  C      -49.926    -185.904    -378.682
  N      -49.497    -186.424    -379.877
  O      -44.426    -183.209    -377.144
  O      -43.833    -183.175    -379.640
  H      -48.716    -185.673    -382.554
  H      -43.520    -182.848    -377.108
  H      -53.813    -186.433    -382.332
  H      -49.257    -185.714    -377.861
  H      -48.303    -187.886    -380.675
  H      -47.462    -184.910    -380.764
  H      -52.860    -187.381    -384.243
  H      -45.217    -185.772    -381.246
  H      -51.157    -187.694    -384.281
  H      -45.439    -187.786    -379.299
  H      -45.353    -186.083    -377.520
  H      -44.225    -185.691    -378.796
  P      -44.500    -187.956    -382.472
  C      -43.571    -187.227    -384.777
  O      -44.708    -187.370    -383.944
  O      -44.491    -189.544    -382.698
  O      -43.260    -187.515    -381.762
  H      -43.581    -189.883    -382.603
  H      -43.893    -187.281    -385.821
  H      -42.833    -188.011    -384.592
  H      -43.117    -186.249    -384.599
  H      -46.610    -180.377    -379.878
  H      -46.326    -181.884    -380.716
  H      -44.976    -180.885    -380.233

 3  4  5  6  7  8  9  10  11  12  23  26  30  31 0
 6-311+G(2d,p)
 ****
 33  35  36  37  38 0
 6-311+G(2d,p)
 ****
 1  2  13  14  15  16  17  18  19  20  21  22  24  25 0
 3-21G
 ****
 27  28  29  32  34  39  40  41  42  43  44  45  46  47  48  49 0
 3-21G
 ****


