%nproc=1
%NoSave
%Mem=1900MB
#P OB98/GEN NMR

erre ene a

0 1
  C      272.351    -803.484     153.104
  O      273.594    -803.181     153.698
  H      272.362    -804.532     152.792
  H      272.202    -802.857     152.222
  H      271.526    -803.336     153.806
  P      273.729    -801.837     154.558
  C      275.081    -802.354     156.698
  O      275.123    -801.913     155.344
  C      275.021    -803.883     156.782
  O      276.147    -804.453     156.069
  C      275.139    -804.337     158.239
  O      274.475    -805.579     158.468
  C      276.641    -804.540     158.405
  O      276.966    -805.411     159.485
  C      277.020    -805.077     157.025
  N      281.325    -806.995     155.090
  C      280.143    -807.639     155.397
  N      280.116    -808.975     155.191
  N      279.095    -807.031     155.893
  C      279.290    -805.708     156.120
  C      280.428    -804.968     155.872
  C      281.563    -805.646     155.292
  O      282.641    -805.126     155.014
  N      280.257    -803.655     156.256
  C      279.031    -803.613     156.735
  N      278.398    -804.831     156.664
  O      272.656    -802.030     155.737
  O      273.495    -800.559     153.810
  H      276.406    -806.204     159.405
  H      272.367    -801.167     156.077
  H      282.097    -807.512     154.700
  H      278.547    -802.724     157.136
  H      276.851    -806.156     156.974
  H      277.090    -803.567     158.627
  H      280.943    -809.511     154.990
  H      274.758    -803.596     158.934
  H      279.384    -809.501     155.686
  H      274.114    -804.252     156.295
  H      274.182    -801.914     157.152
  H      275.940    -801.962     157.250
  P      273.242    -805.579     159.496
  C      271.464    -807.392     158.830
  O      272.646    -807.065     159.540
  O      272.121    -804.725     158.742
  O      273.580    -805.008     160.832
  H      272.053    -803.838     159.135
  H      271.230    -808.425     158.984
  H      271.614    -807.212     157.786
  H      270.656    -806.786     159.184

 6  7  8  9  10  11  12  13  14  15  26  29  33  34 0
 6-311+G(2d,p)
 ****
 36  38  39  40  41 0
 6-311+G(2d,p)
 ****
 1  2  3  4  5  16  17  18  19  20  21  22  23  24  25 0
 3-21G
 ****
 27  28  30  31  32  35  37  42  43  44  45  46  47 0
 3-21G
 ****
 48  49 0
 3-21G
 ****


