%nproc=1
%NoSave
%Mem=1900MB
#P OB98/GEN NMR

erre ene a

0 1
  C     -285.008     859.718    1016.380
  O     -286.301     859.483    1015.850
  P     -287.461     859.045    1016.875
  C     -288.577     861.444    1016.797
  O     -287.965     860.413    1017.561
  C     -290.031     861.604    1017.203
  O     -290.821     860.482    1016.711
  C     -290.281     861.641    1018.703
  O     -289.939     862.888    1019.265
  C     -291.763     861.294    1018.776
  O     -292.560     862.457    1018.492
  C     -291.904     860.258    1017.636
  N     -291.931     858.875    1018.106
  C     -293.187     858.360    1018.435
  O     -294.219     859.010    1018.338
  N     -293.188     857.070    1018.895
  C     -292.087     856.287    1019.110
  O     -292.150     855.151    1019.564
  C     -290.789     856.897    1018.770
  C     -290.777     858.148    1018.295
  O     -286.606     858.302    1017.999
  O     -288.514     858.207    1016.238
  H     -285.690     858.647    1018.037
  H     -292.070     862.972    1017.824
  H     -294.084     856.673    1019.126
  H     -289.894     856.313    1018.944
  H     -289.827     858.609    1018.048
  H     -292.827     860.453    1017.063
  H     -292.076     860.929    1019.753
  H     -289.698     860.851    1019.197
  H     -290.431     862.510    1016.733
  H     -288.522     861.178    1015.733
  H     -288.024     862.364    1016.957
  P     -289.628     862.914    1020.846
  C     -287.172     862.046    1020.927
  O     -288.549     861.774    1021.121
  O     -290.992     862.299    1021.436
  O     -289.287     864.293    1021.371
  H     -291.319     861.554    1020.928
  H     -286.583     861.311    1021.481
  H     -286.904     863.053    1021.272
  H     -286.930     861.960    1019.870
  H     -284.344     860.000    1015.589
  H     -284.647     858.826    1016.848
  H     -285.056     860.506    1017.103

 3  4  5  6  7  8  9  10  11  12  13  24  28  29  30  31  32 0
 6-311+G(2d,p)
 ****
 33  34 0
 6-311+G(2d,p)
 ****
 1  2  14  15  16  17  18  19  20  21  22  23  25  26  27 0
 3-21G
 ****
 35  36  37  38  39  40  41  42  43  44  45 0
 3-21G
 ****


