%nproc=1
%NoSave
%Mem=1900MB
#P OB98/GEN NMR

erre ene a

0 1
  C      148.162     119.292     -12.205
  O      146.848     119.568     -11.764
  H      148.134     119.068     -13.274
  H      148.560     118.421     -11.676
  H      148.815     120.154     -12.046
  P      146.632     120.125     -10.277
  C      147.035     122.381      -9.091
  O      147.344     121.561     -10.210
  C      148.309     123.019      -8.546
  O      149.111     122.028      -7.868
  C      149.212     123.620      -9.617
  O      148.695     124.853     -10.080
  C      150.525     123.720      -8.858
  O      150.538     124.880      -8.008
  C      150.495     122.420      -8.016
  N      151.286     121.338      -8.601
  C      152.652     121.360      -8.340
  O      153.198     122.250      -7.690
  N      153.379     120.325      -8.871
  C      152.894     119.345      -9.686
  O      153.600     118.468     -10.182
  C      151.451     119.392      -9.956
  C      150.725     120.370      -9.412
  O      147.001     119.190      -9.172
  O      145.074     120.498     -10.238
  H      151.378     124.851      -7.511
  H      144.580     119.790      -9.785
  H      154.372     120.331      -8.703
  H      151.032     118.633     -10.606
  H      149.659     120.424      -9.602
  H      150.876     122.614      -7.006
  H      151.389     123.803      -9.517
  H      149.339     122.914     -10.447
  H      148.022     123.781      -7.808
  H      146.577     121.758      -8.314
  H      146.319     123.149      -9.401
  P      149.122     125.437     -11.506
  C      148.761     124.652     -13.919
  O      148.992     124.244     -12.576
  O      150.430     126.155     -11.534
  O      147.920     126.412     -11.904
  H      148.202     127.344     -11.806
  H      148.691     123.789     -14.547
  H      149.571     125.268     -14.249
  H      147.847     125.206     -13.971

 6  7  8  9  10  11  12  13  14  15  16  26  31  32  33  34  35 0
 6-311+G(2d,p)
 ****
 36  37 0
 6-311+G(2d,p)
 ****
 1  2  3  4  5  17  18  19  20  21  22  23  24  25 0
 3-21G
 ****
 27  28  29  30  38  39  40  41  42  43  44  45 0
 3-21G
 ****


