%nproc=1
%NoSave
%Mem=1900MB
#P OB98/GEN NMR

erre ene a

0 1
  C      -72.872     -23.579      81.424
  O      -73.420     -24.531      82.345
  P      -74.908     -24.394      82.929
  C      -75.789     -26.690      82.164
  O      -75.899     -25.277      82.027
  C      -76.408     -27.425      80.970
  O      -75.652     -27.177      79.769
  C      -76.469     -28.942      81.124
  O      -77.552     -29.316      81.955
  C      -76.591     -29.383      79.669
  O      -77.952     -29.264      79.220
  C      -75.700     -28.361      78.952
  N      -72.293     -29.491      75.310
  C      -73.541     -28.980      75.251
  N      -74.390     -28.712      76.267
  C      -73.819     -29.003      77.448
  C      -72.557     -29.534      77.664
  C      -71.774     -29.784      76.525
  N      -70.508     -30.319      76.587
  N      -72.330     -29.722      79.011
  C      -73.430     -29.295      79.599
  N      -74.359     -28.852      78.698
  O      -75.360     -22.985      83.134
  O      -74.873     -25.185      84.322
  H      -78.185     -28.319      79.244
  H      -75.535     -24.809      84.930
  H      -73.910     -28.757      74.253
  H      -73.599     -29.285      80.668
  H      -76.126     -28.059      77.988
  H      -76.286     -30.422      79.515
  H      -75.526     -29.315      81.538
  H      -77.414     -27.017      80.812
  H      -76.303     -26.989      83.084
  H      -70.024     -30.499      75.722
  H      -70.131     -30.583      77.486
  H      -74.729     -26.951      82.252
  P      -77.304     -29.623      83.507
  C      -78.213     -27.326      84.198
  O      -77.110     -28.212      84.242
  O      -76.258     -30.644      83.804
  O      -78.742     -30.097      84.032
  H      -78.624     -30.721      84.772
  H      -78.233     -26.819      83.230
  H      -78.095     -26.580      84.988
  H      -79.153     -27.862      84.352
  H      -71.873     -23.864      81.168
  H      -72.861     -22.610      81.877
  H      -73.473     -23.552      80.539

 3  4  5  6  7  8  9  10  11  12  22  25  29  30  31  32 0
 6-311+G(2d,p)
 ****
 33  36  37 0
 6-311+G(2d,p)
 ****
 1  2  13  14  15  16  17  18  19  20  21  23  24  26 0
 3-21G
 ****
 27  28  34  35  38  39  40  41  42  43  44  45  46  47  48 0
 3-21G
 ****


