%nproc=1
%NoSave
%Mem=1900MB
#P OB98/GEN NMR

erre ene a

0 1
  C     1321.668    -337.073     -52.611
  O     1321.033    -336.796     -51.377
  H     1321.693    -338.167     -52.756
  H     1322.690    -336.704     -52.607
  H     1321.105    -336.628     -53.436
  P     1320.920    -335.248     -50.958
  C     1323.423    -334.886     -50.372
  O     1322.094    -335.051     -49.891
  C     1324.311    -334.230     -49.326
  O     1324.037    -332.812     -49.263
  C     1324.118    -334.764     -47.917
  O     1324.874    -335.958     -47.730
  C     1324.680    -333.620     -47.087
  O     1326.119    -333.696     -47.060
  C     1324.235    -332.389     -47.896
  N     1321.437    -328.064     -47.878
  C     1322.701    -328.317     -48.307
  N     1323.393    -329.463     -48.225
  C     1322.654    -330.438     -47.649
  C     1321.368    -330.331     -47.137
  C     1320.750    -329.065     -47.290
  N     1319.473    -328.818     -46.855
  N     1320.944    -331.533     -46.613
  C     1321.940    -332.358     -46.838
  N     1323.010    -331.731     -47.418
  O     1319.561    -334.790     -50.551
  O     1321.517    -334.541     -52.271
  H     1326.392    -334.001     -47.963
  H     1322.294    -335.038     -52.608
  H     1323.210    -327.483     -48.767
  H     1321.921    -333.419     -46.609
  H     1325.019    -331.618     -47.902
  H     1324.335    -333.644     -46.049
  H     1323.065    -334.919     -47.668
  H     1325.359    -334.342     -49.654
  H     1323.411    -334.289     -51.299
  H     1319.172    -327.846     -46.811
  H     1318.994    -329.517     -46.287
  H     1323.807    -335.889     -50.637
  P     1324.203    -337.327     -47.193
  C     1323.981    -336.169     -44.898
  O     1324.457    -337.310     -45.624
  O     1324.607    -338.544     -47.946
  O     1322.629    -337.026     -47.312
  H     1322.127    -337.881     -47.263
  H     1324.215    -336.284     -43.860
  H     1322.921    -336.087     -45.018
  H     1324.452    -335.285     -45.274

 6  7  8  9  10  11  12  13  14  15  25  28  32  33  34  35 0
 6-311+G(2d,p)
 ****
 36  39  40 0
 6-311+G(2d,p)
 ****
 1  2  3  4  5  16  17  18  19  20  21  22  23  24 0
 3-21G
 ****
 26  27  29  30  31  37  38  41  42  43  44  45  46  47 0
 3-21G
 ****
 48 0
 3-21G
 ****


