%nproc=1
%NoSave
%Mem=1900MB
#P OB98/GEN NMR

erre ene a

0 1
  C      332.902     407.156     887.232
  O      332.363     406.359     886.204
  H      332.085     407.577     887.826
  H      333.473     407.983     886.793
  H      333.552     406.581     887.897
  P      333.341     405.398     885.371
  C      333.148     406.577     883.087
  O      333.983     406.298     884.205
  C      333.737     407.721     882.234
  O      333.826     408.914     883.072
  C      335.148     407.421     881.691
  O      335.267     408.109     880.434
  C      336.030     408.075     882.745
  O      337.348     408.280     882.256
  C      335.220     409.330     883.067
  N      335.608     409.942     884.331
  C      336.855     410.549     884.368
  O      337.629     410.583     883.398
  N      337.219     411.121     885.550
  C      336.489     411.073     886.709
  O      336.887     411.563     887.760
  C      335.201     410.364     886.628
  C      334.822     409.843     885.454
  O      332.751     404.114     884.902
  O      334.594     405.157     886.348
  H      337.322     408.942     881.531
  H      334.989     404.290     886.178
  H      338.118     411.576     885.586
  H      334.609     410.312     887.531
  H      333.868     409.326     885.371
  H      335.336     410.084     882.271
  H      336.102     407.434     883.628
  H      335.344     406.355     881.558
  H      333.028     407.948     881.421
  H      332.156     406.868     883.451
  H      333.044     405.679     882.469
  P      334.941     407.407     879.029
  C      337.097     406.072     878.524
  O      335.745     406.004     878.964
  O      335.155     408.275     877.845
  O      333.411     406.947     879.150
  H      333.017     406.922     878.267
  H      337.521     405.090     878.523
  H      337.656     406.701     879.185
  H      337.130     406.476     877.534

 6  7  8  9  10  11  12  13  14  15  16  26  31  32  33  34  35 0
 6-311+G(2d,p)
 ****
 36  37 0
 6-311+G(2d,p)
 ****
 1  2  3  4  5  17  18  19  20  21  22  23  24  25 0
 3-21G
 ****
 27  28  29  30  38  39  40  41  42  43  44  45 0
 3-21G
 ****


