%nproc=1
%NoSave
%Mem=1900MB
#P OB98/GEN NMR

erre ene a

0 1
  C      109.593     -63.429     -27.706
  O      109.978     -62.906     -28.969
  P      110.241     -61.324     -29.067
  C      108.697     -59.269     -28.718
  O      108.787     -60.646     -29.064
  C      107.296     -58.932     -28.224
  O      107.034     -59.624     -26.989
  C      107.069     -57.459     -27.920
  O      106.800     -56.709     -29.095
  C      105.843     -57.530     -27.022
  O      104.657     -57.646     -27.831
  C      106.085     -58.828     -26.236
  N      104.970     -57.578     -21.458
  C      104.141     -57.715     -22.554
  N      102.823     -57.515     -22.338
  N      104.565     -58.017     -23.752
  C      105.901     -58.227     -23.809
  C      106.827     -58.121     -22.795
  C      106.350     -57.735     -21.484
  O      107.046     -57.536     -20.492
  N      108.088     -58.426     -23.237
  C      107.923     -58.752     -24.503
  N      106.617     -58.617     -24.905
  O      110.733     -61.132     -30.577
  O      111.224     -60.784     -28.088
  H      104.504     -56.774     -28.241
  H      111.285     -60.329     -30.647
  H      104.589     -57.361     -20.555
  H      108.714     -59.086     -25.159
  H      105.166     -59.420     -26.153
  H      105.718     -56.639     -26.398
  H      102.424     -57.410     -21.419
  H      107.911     -57.037     -27.359
  H      102.196     -57.646     -23.121
  H      106.575     -59.287     -28.972
  H      108.919     -58.660     -29.600
  H      109.440     -59.050     -27.945
  P      106.772     -55.111     -28.937
  C      105.243     -53.495     -27.596
  O      105.425     -54.791     -28.132
  O      106.467     -54.601     -30.422
  O      108.027     -54.526     -28.385
  H      106.816     -53.698     -30.547
  H      105.658     -52.727     -28.255
  H      105.726     -53.435     -26.617
  H      104.174     -53.310     -27.475
  H      109.452     -64.487     -27.786
  H      108.678     -62.970     -27.394
  H      110.358     -63.224     -26.987

 3  4  5  6  7  8  9  10  11  12  23  26  30  31  33  0
 6-311+G(2d,p)
 ****
 35  36  37  38 0
 6-311+G(2d,p)
 ****
 1  2  13  14  15  16  17  18  19  20  21  22  24  25  27  28  29 0
 3-21G
 ****
 32  34  39  40  41  42  43  44  45  46  47  48  49 0
 3-21G
 ****


