%nproc=1
%NoSave
%Mem=1900MB
#P OB98/GEN NMR

erre ene a

0 1
  C     -303.557    -405.531       3.441
  O     -304.035    -406.514       2.545
  H     -302.506    -405.331       3.209
  H     -303.622    -405.900       4.467
  H     -304.124    -404.601       3.339
  P     -305.590    -406.900       2.571
  C     -305.398    -408.632       4.478
  O     -305.938    -407.384       4.064
  C     -306.515    -409.638       4.774
  O     -307.190    -409.231       5.995
  C     -307.565    -409.735       3.663
  O     -307.989    -411.093       3.542
  C     -308.711    -408.882       4.185
  O     -309.970    -409.276       3.644
  C     -308.599    -409.092       5.693
  N     -312.926    -406.914       7.150
  C     -312.703    -408.102       6.471
  N     -313.805    -408.806       6.109
  N     -311.515    -408.555       6.168
  C     -310.506    -407.763       6.610
  C     -310.596    -406.568       7.295
  C     -311.924    -406.066       7.598
  O     -312.177    -405.014       8.185
  N     -309.351    -406.048       7.553
  C     -308.514    -406.927       7.028
  N     -309.167    -407.979       6.435
  O     -306.026    -407.846       1.496
  O     -306.347    -405.497       2.456
  H     -310.651    -408.704       4.051
  H     -306.723    -405.371       1.568
  H     -313.861    -406.611       7.345
  H     -307.436    -406.850       7.047
  H     -309.117    -409.999       6.028
  H     -308.535    -407.833       3.921
  H     -314.746    -408.524       6.331
  H     -307.187    -409.382       2.704
  H     -313.664    -409.692       5.638
  H     -306.056    -410.615       4.973
  H     -304.801    -408.461       5.386
  H     -304.737    -409.019       3.691
  P     -307.533    -411.942       2.261
  C     -309.791    -412.060       1.035
  O     -308.465    -411.547       1.011
  O     -307.368    -413.408       2.484
  O     -306.125    -411.268       1.870
  H     -305.524    -411.954       1.519
  H     -310.315    -411.735       0.160
  H     -310.296    -411.701       1.907
  H     -309.759    -413.129       1.056

 6  7  8  9  10  11  12  13  14  15  26  29  33  34 0
 6-311+G(2d,p)
 ****
 36  38  39  40  41 0
 6-311+G(2d,p)
 ****
 1  2  3  4  5  16  17  18  19  20  21  22  23  24  25 0
 3-21G
 ****
 27  28  30  31  32  35  37  42  43  44  45  46  47 0
 3-21G
 ****
 48  49 0
 3-21G
 ****


