%nproc=1
%NoSave
%Mem=1900MB
#P OB98/GEN NMR

erre ene a

0 1
  C      183.294      66.398      83.646
  O      184.128      65.482      84.325
  P      185.064      65.892      85.554
  C      183.734      64.855      87.530
  O      184.140      66.046      86.860
  C      184.116      64.844      89.020
  O      185.552      64.867      89.147
  C      183.599      66.116      89.701
  O      182.262      66.186      90.163
  C      184.656      66.460      90.745
  O      184.303      66.008      92.057
  C      185.901      65.727      90.244
  N      190.204      68.052      91.583
  C      189.557      66.996      92.199
  N      190.020      66.653      93.422
  N      188.543      66.363      91.672
  C      188.136      66.881      90.491
  C      188.707      67.913      89.773
  C      189.849      68.578      90.350
  O      190.400      69.571      89.876
  N      187.979      68.220      88.652
  C      186.948      67.403      88.705
  N      186.978      66.600      89.822
  O      186.107      66.933      85.287
  O      185.832      64.502      85.842
  H      185.099      66.055      92.613
  H      186.737      64.725      86.140
  H      190.933      68.552      92.073
  H      186.141      67.372      87.982
  H      186.312      65.078      91.029
  H      184.788      67.549      90.819
  H      190.697      67.212      93.920
  H      183.667      66.921      88.963
  H      189.466      66.007      93.970
  H      183.788      63.922      89.502
  H      184.196      64.010      87.008
  H      182.653      64.737      87.437
  P      181.478      67.506      90.604
  C      179.761      68.016      88.779
  O      181.052      68.306      89.285
  O      182.613      68.447      91.238
  O      180.379      67.283      91.590
  H      182.203      69.095      91.838
  H      179.695      68.368      87.748
  H      179.004      68.534      89.379
  H      179.563      66.937      88.802
  H      182.768      65.890      82.865
  H      183.891      67.179      83.224
  H      182.591      66.819      84.335

 3  4  5  6  7  8  9  10  11  12  23  26  30  31 0
 6-311+G(2d,p)
 ****
 33  35  36  37  38 0
 6-311+G(2d,p)
 ****
 1  2  13  14  15  16  17  18  19  20  21  22  24  25 0
 3-21G
 ****
 27  28  29  32  34  39  40  41  42  43  44  45  46  47  48  49 0
 3-21G
 ****


