%nproc=1
%NoSave
%Mem=1900MB
#P OB98/GEN NMR

erre ene a

0 1
  C     -253.572     -18.299     109.940
  O     -254.906     -18.538     110.340
  H     -253.291     -18.986     109.137
  H     -253.494     -17.275     109.567
  H     -252.894     -18.419     110.789
  P     -255.236     -19.993     110.932
  C     -255.405     -20.916     108.507
  O     -254.804     -21.036     109.790
  C     -255.652     -22.303     107.925
  O     -254.395     -22.979     107.698
  C     -256.460     -23.230     108.828
  O     -257.852     -22.985     108.738
  C     -256.097     -24.580     108.236
  O     -256.835     -24.793     107.017
  C     -254.605     -24.399     107.932
  N     -250.386     -27.051     109.097
  C     -251.008     -26.817     107.921
  N     -252.131     -26.104     107.698
  C     -252.616     -25.602     108.845
  C     -252.095     -25.762     110.118
  C     -250.915     -26.523     110.225
  N     -250.286     -26.776     111.424
  N     -252.890     -25.131     111.056
  C     -253.853     -24.571     110.350
  N     -253.737     -24.836     109.011
  O     -256.835     -20.061     110.897
  O     -254.681     -20.284     112.287
  H     -256.689     -24.004     106.461
  H     -257.155     -20.742     111.516
  H     -250.544     -27.265     107.047
  H     -254.653     -23.968     110.762
  H     -254.293     -24.932     107.027
  H     -256.332     -25.415     108.900
  H     -256.109     -23.187     109.867
  H     -256.145     -22.182     106.952
  H     -254.734     -20.360     107.846
  H     -249.562     -27.476     111.414
  H     -250.755     -26.512     112.278
  H     -256.349     -20.371     108.602
  P     -258.676     -22.904     110.113
  C     -259.655     -25.301     110.386
  O     -258.627     -24.379     110.740
  O     -260.193     -22.758     109.619
  O     -258.267     -21.795     111.025
  H     -260.733     -22.301     110.293
  H     -259.484     -26.234     110.881
  H     -259.648     -25.453     109.327
  H     -260.605     -24.908     110.684

 6  7  8  9  10  11  12  13  14  15  25  28  32  33  34  35 0
 6-311+G(2d,p)
 ****
 36  39  40 0
 6-311+G(2d,p)
 ****
 1  2  3  4  5  16  17  18  19  20  21  22  23  24 0
 3-21G
 ****
 26  27  29  30  31  37  38  41  42  43  44  45  46  47 0
 3-21G
 ****
 48 0
 3-21G
 ****


