%nproc=1
%NoSave
%Mem=1900MB
#P OB98/GEN NMR

erre ene a

0 1
  C      600.195     470.116     463.353
  O      600.262     468.864     464.042
  P      599.635     468.770     465.512
  C      597.135     468.196     465.203
  O      598.438     467.696     465.493
  C      596.057     467.303     465.854
  O      594.813     468.048     465.933
  C      595.727     466.022     465.078
  O      596.494     464.851     465.352
  C      594.302     465.742     465.559
  O      594.350     465.042     466.820
  C      593.719     467.133     465.764
  N      589.104     468.929     464.454
  C      589.639     468.595     465.656
  N      590.876     468.122     465.912
  C      591.587     468.021     464.781
  C      591.172     468.317     463.490
  C      589.865     468.784     463.343
  N      589.310     469.109     462.127
  N      592.189     468.060     462.586
  C      593.188     467.604     463.313
  N      592.883     467.571     464.650
  O      599.315     470.067     466.179
  O      600.773     467.977     466.322
  H      594.552     465.716     467.501
  H      600.830     468.345     467.230
  H      588.988     468.727     466.515
  H      594.143     467.288     462.925
  H      593.094     467.193     466.667
  H      593.749     465.098     464.868
  H      595.725     466.211     463.989
  H      596.374     467.050     466.871
  H      596.983     468.223     464.119
  H      588.349     469.390     462.098
  H      589.845     468.957     461.280
  H      597.088     469.228     465.564
  P      597.620     464.330     464.331
  C      599.679     465.930     464.419
  O      599.019     464.801     464.944
  O      597.401     464.715     462.905
  O      597.624     462.749     464.596
  H      597.960     462.494     465.467
  H      600.494     466.218     465.104
  H      598.994     466.770     464.315
  H      600.111     465.679     463.449
  H      600.653     470.019     462.391
  H      600.711     470.863     463.919
  H      599.171     470.403     463.233

 3  4  5  6  7  8  9  10  11  12  22  25  29  30  31  32 0
 6-311+G(2d,p)
 ****
 33  36  37 0
 6-311+G(2d,p)
 ****
 1  2  13  14  15  16  17  18  19  20  21  23  24  26 0
 3-21G
 ****
 27  28  34  35  38  39  40  41  42  43  44  45  46  47  48 0
 3-21G
 ****


