%nproc=1
%NoSave
%Mem=1900MB
#P OB98/GEN NMR

erre ene a

0 1
  C     -279.393    -112.626     110.755
  O     -278.656    -113.720     111.276
  P     -278.983    -115.182     110.700
  C     -276.544    -116.171     110.770
  O     -277.858    -116.150     111.310
  C     -275.719    -117.273     111.441
  O     -275.285    -116.836     112.747
  C     -276.472    -118.575     111.677
  O     -276.602    -119.334     110.487
  C     -275.609    -119.223     112.757
  O     -274.461    -119.851     112.165
  C     -275.179    -118.002     113.593
  N     -275.961    -117.840     114.819
  C     -275.661    -118.713     115.860
  O     -274.792    -119.583     115.781
  N     -276.409    -118.565     116.997
  C     -277.450    -117.697     117.168
  O     -278.117    -117.636     118.194
  C     -277.741    -116.822     116.020
  C     -276.995    -116.931     114.918
  O     -278.575    -114.993     109.167
  O     -280.394    -115.602     110.937
  H     -277.895    -114.307     109.056
  H     -274.074    -119.198     111.550
  H     -276.197    -119.173     117.774
  H     -278.563    -116.124     116.116
  H     -277.202    -116.301     114.062
  H     -274.121    -118.085     113.868
  H     -276.148    -119.991     113.319
  H     -277.468    -118.360     112.084
  H     -274.824    -117.450     110.828
  H     -276.071    -115.201     110.946
  H     -276.606    -116.342     109.691
  P     -278.099    -119.734     110.047
  C     -277.649    -119.504     107.481
  O     -277.983    -120.339     108.569
  O     -278.754    -118.290     109.833
  O     -278.804    -120.595     111.042
  H     -278.162    -117.669     109.377
  H     -277.275    -120.127     106.664
  H     -276.876    -118.782     107.756
  H     -278.542    -118.974     107.141
  H     -279.071    -111.722     111.227
  H     -280.435    -112.776     110.944
  H     -279.229    -112.555     109.700

 3  4  5  6  7  8  9  10  11  12  13  24  28  29  30  31  32 0
 6-311+G(2d,p)
 ****
 33  34 0
 6-311+G(2d,p)
 ****
 1  2  14  15  16  17  18  19  20  21  22  23  25  26  27 0
 3-21G
 ****
 35  36  37  38  39  40  41  42  43  44  45 0
 3-21G
 ****


