%nproc=1
%NoSave
%Mem=1900MB
#P OB98/GEN NMR

erre ene a

0 1
  C       -5.763      95.600      52.215
  O       -6.577      96.736      51.995
  H       -6.385      94.704      52.142
  H       -5.317      95.635      53.212
  H       -4.976      95.543      51.457
  P       -5.893      98.183      52.057
  C       -6.952      99.339      50.004
  O       -5.804      98.692      50.538
  C       -7.203      98.864      48.577
  O       -7.339      97.431      48.540
  C       -8.473      99.438      47.948
  O       -8.237     100.751      47.463
  C       -8.713      98.423      46.841
  O       -7.805      98.669      45.751
  C       -8.354      97.104      47.547
  N      -10.026      92.778      49.597
  C       -8.840      93.048      48.935
  N       -8.004      92.004      48.760
  N       -8.520      94.228      48.471
  C       -9.485      95.157      48.660
  C      -10.703      95.009      49.283
  C      -11.024      93.711      49.839
  O      -12.055      93.434      50.450
  N      -11.446      96.160      49.221
  C      -10.660      97.016      48.600
  N       -9.463      96.453      48.221
  O       -4.593      98.271      52.801
  O       -7.019      99.121      52.696
  H       -7.870      97.900      45.154
  H       -6.925      99.175      53.665
  H      -10.224      91.844      49.914
  H      -10.908      98.052      48.396
  H       -7.915      96.370      46.859
  H       -9.726      98.461      46.437
  H       -8.322      91.045      48.837
  H       -9.321      99.404      48.641
  H       -7.156      92.168      48.235
  H       -6.319      99.121      47.977
  H       -6.763     100.417      50.023
  H       -7.831      99.125      50.624
  P       -8.682     102.042      48.313
  C       -6.293     102.712      49.036
  O       -7.555     102.197      49.442
  O      -10.080     101.997      48.832
  O       -8.384     103.278      47.350
  H       -9.143     103.506      46.756
  H       -5.640     102.763      49.882
  H       -6.423     103.692      48.626
  H       -5.867     102.069      48.294

 6  7  8  9  10  11  12  13  14  15  26  29  33  34 0
 6-311+G(2d,p)
 ****
 36  38  39  40  41 0
 6-311+G(2d,p)
 ****
 1  2  3  4  5  16  17  18  19  20  21  22  23  24  25 0
 3-21G
 ****
 27  28  30  31  32  35  37  42  43  44  45  46  47 0
 3-21G
 ****
 48  49 0
 3-21G
 ****


