%nproc=1
%NoSave
%Mem=1900MB
#P OB98/GEN NMR

erre ene a

0 1
  C      183.706    -207.313      41.498
  O      183.562    -205.969      41.980
  P      184.814    -205.040      42.355
  C      185.659    -204.529      39.971
  O      185.080    -204.003      41.163
  C      186.542    -203.493      39.268
  O      187.147    -204.056      38.088
  C      185.807    -202.247      38.789
  O      185.519    -201.375      39.869
  C      186.799    -201.696      37.769
  O      187.835    -200.936      38.414
  C      187.371    -202.988      37.150
  N      186.792    -203.286      35.848
  C      187.317    -202.593      34.755
  O      188.185    -201.735      34.919
  N      186.828    -202.873      33.499
  C      185.851    -203.713      33.363
  N      185.412    -203.954      32.097
  C      185.206    -204.397      34.499
  C      185.724    -204.140      35.699
  O      186.028    -205.801      42.782
  O      184.295    -204.106      43.550
  H      187.385    -200.288      38.989
  H      185.044    -203.891      44.134
  H      184.374    -205.068      34.344
  H      185.315    -204.608      36.588
  H      188.460    -202.908      37.038
  H      186.325    -201.036      37.037
  H      184.881    -202.537      38.276
  H      187.351    -203.219      39.960
  H      185.879    -203.475      31.341
  H      184.847    -204.829      39.298
  H      184.659    -204.591      31.880
  H      186.248    -205.416      40.229
  P      184.045    -200.770      40.031
  C      182.779    -202.809      40.938
  O      183.334    -201.541      41.240
  O      183.244    -200.677      38.776
  O      184.303    -199.313      40.652
  H      183.605    -198.708      40.340
  H      182.697    -203.387      41.863
  H      183.406    -203.358      40.228
  H      181.779    -202.675      40.514
  H      182.739    -207.732      41.316
  H      184.218    -207.902      42.230
  H      184.269    -207.307      40.588

 3  4  5  6  7  8  9  10  11  12  13  23  27  28  29  30  32 0
 6-311+G(2d,p)
 ****
 34  35 0
 6-311+G(2d,p)
 ****
 1  2  14  15  16  17  18  19  20  21  22  24  25  26 0
 3-21G
 ****
 31  33  36  37  38  39  40  41  42  43  44  45  46 0
 3-21G
 ****


