%nproc=1
%NoSave
%Mem=1900MB
#P OB98/GEN NMR

erre ene a

0 1
  C      -83.453    -282.849     191.866
  O      -82.819    -283.993     192.453
  P      -83.650    -285.276     192.932
  C      -84.406    -286.745     190.953
  O      -83.379    -286.483     191.908
  C      -84.816    -288.219     190.949
  O      -85.928    -288.441     190.061
  C      -83.719    -289.181     190.501
  O      -82.792    -289.406     191.547
  C      -84.537    -290.401     190.093
  O      -84.896    -291.178     191.247
  C      -85.787    -289.750     189.478
  N      -87.766    -291.491     185.094
  C      -88.062    -291.750     186.384
  N      -87.487    -291.250     187.499
  C      -86.520    -290.374     187.180
  C      -86.102    -290.012     185.905
  C      -86.769    -290.613     184.827
  N      -86.454    -290.357     183.512
  N      -85.065    -289.105     185.973
  C      -84.873    -288.910     187.263
  N      -85.728    -289.653     188.032
  O      -85.101    -285.009     193.191
  O      -82.919    -285.761     194.273
  H      -85.459    -291.914     190.941
  H      -83.558    -286.212     194.853
  H      -88.874    -292.457     186.548
  H      -84.133    -288.242     187.689
  H      -86.698    -290.307     189.730
  H      -84.000    -291.063     189.409
  H      -83.206    -288.777     189.619
  H      -85.153    -288.474     191.964
  H      -84.034    -286.464     189.960
  H      -86.955    -290.854     182.794
  H      -85.680    -289.739     183.303
  H      -85.271    -286.117     191.192
  P      -81.224    -289.455     191.234
  C      -80.070    -287.244     191.837
  O      -80.497    -288.508     192.307
  O      -80.840    -289.215     189.815
  O      -80.787    -290.923     191.715
  H      -80.031    -291.223     191.175
  H      -79.130    -287.351     191.295
  H      -79.916    -286.588     192.697
  H      -80.825    -286.796     191.183
  H      -82.712    -282.116     191.623
  H      -84.152    -282.433     192.561
  H      -83.968    -283.144     190.976

 3  4  5  6  7  8  9  10  11  12  22  25  29  30  31  32 0
 6-311+G(2d,p)
 ****
 33  36  37 0
 6-311+G(2d,p)
 ****
 1  2  13  14  15  16  17  18  19  20  21  23  24  26 0
 3-21G
 ****
 27  28  34  35  38  39  40  41  42  43  44  45  46  47  48 0
 3-21G
 ****


