%nproc=1
%NoSave
%Mem=1900MB
#P OB98/GEN NMR

erre ene a

0 1
  C     -678.520     -39.633     168.473
  O     -677.120     -39.725     168.335
  H     -678.881     -38.825     167.831
  H     -678.771     -39.398     169.512
  H     -679.015     -40.562     168.177
  P     -676.390     -41.076     168.782
  C     -675.536     -40.100     171.016
  O     -676.328     -41.104     170.388
  C     -675.831     -40.005     172.514
  O     -677.115     -39.376     172.718
  C     -675.898     -41.379     173.189
  O     -674.649     -41.877     173.629
  C     -676.827     -41.104     174.368
  O     -676.091     -40.646     175.517
  C     -677.748     -39.997     173.846
  N     -682.495     -41.164     175.355
  C     -681.390     -40.854     176.128
  N     -681.574     -40.900     177.468
  N     -680.222     -40.549     175.628
  C     -680.169     -40.641     174.278
  C     -681.191     -40.958     173.409
  C     -682.498     -41.222     173.969
  O     -683.510     -41.484     173.330
  N     -680.753     -40.992     172.107
  C     -679.452     -40.787     172.202
  N     -679.066     -40.490     173.488
  O     -674.858     -40.824     168.383
  O     -676.900     -42.329     168.141
  H     -675.625     -39.819     175.268
  H     -674.436     -41.669     168.143
  H     -683.371     -41.359     175.799
  H     -678.760     -40.796     171.369
  H     -677.896     -39.212     174.597
  H     -677.349     -42.015     174.674
  H     -682.423     -41.213     177.907
  H     -676.386     -42.107     172.534
  H     -680.747     -40.865     178.069
  H     -675.079     -39.361     172.990
  H     -675.783     -39.156     170.526
  H     -674.473     -40.292     170.844
  P     -674.357     -43.450     173.666
  C     -674.870     -43.734     176.226
  O     -675.162     -44.082     174.894
  O     -672.835     -43.528     174.149
  O     -674.580     -44.171     172.378
  H     -672.241     -43.654     173.384
  H     -675.522     -44.268     176.885
  H     -675.012     -42.682     176.359
  H     -673.854     -43.987     176.446

 6  7  8  9  10  11  12  13  14  15  26  29  33  34 0
 6-311+G(2d,p)
 ****
 36  38  39  40  41 0
 6-311+G(2d,p)
 ****
 1  2  3  4  5  16  17  18  19  20  21  22  23  24  25 0
 3-21G
 ****
 27  28  30  31  32  35  37  42  43  44  45  46  47 0
 3-21G
 ****
 48  49 0
 3-21G
 ****


