%nproc=1
%NoSave
%Mem=1900MB
#P OB98/GEN NMR

erre ene a

0 1
  C       15.999     -16.983      19.724
  O       15.567     -17.834      20.765
  H       15.527     -17.302      18.790
  H       17.084     -17.048      19.609
  H       15.708     -15.949      19.931
  P       16.115     -17.507      22.237
  C       13.842     -16.438      22.907
  O       15.248     -16.269      22.775
  C       13.262     -15.299      23.740
  O       11.819     -15.389      23.739
  C       13.673     -15.324      25.208
  O       14.975     -14.803      25.402
  C       12.578     -14.473      25.836
  O       12.866     -13.074      25.720
  C       11.351     -14.826      24.984
  N        7.756     -15.278      28.567
  C        8.404     -14.203      28.069
  N        9.340     -14.166      27.096
  C        9.579     -15.401      26.625
  C        9.003     -16.589      27.038
  C        8.043     -16.499      28.060
  N        7.409     -17.596      28.591
  N        9.542     -17.655      26.347
  C       10.421     -17.120      25.524
  N       10.472     -15.761      25.654
  O       17.554     -16.865      21.948
  O       16.199     -18.676      23.160
  H       12.925     -12.879      24.765
  H       18.239     -17.557      22.012
  H        8.139     -13.247      28.512
  H       11.043     -17.670      24.829
  H       10.753     -13.942      24.734
  H       12.463     -14.694      26.898
  H       13.599     -16.344      25.604
  H       13.543     -14.347      23.273
  H       13.638     -17.391      23.408
  H       13.391     -16.456      21.910
  H        6.749     -17.460      29.339
  H        7.695     -18.520      28.294
  P       15.798     -15.266      26.695
  C       17.254     -16.872      25.259
  O       16.409     -16.717      26.388
  O       14.654     -15.556      27.774
  O       16.793     -14.270      27.190
  H       14.570     -14.806      28.392
  H       17.577     -17.890      25.192
  H       18.106     -16.233      25.361
  H       16.716     -16.610      24.372

 6  7  8  9  10  11  12  13  14  15  25  28  32  33  34  35 0
 6-311+G(2d,p)
 ****
 36  37  40 0
 6-311+G(2d,p)
 ****
 1  2  3  4  5  16  17  18  19  20  21  22  23  24 0
 3-21G
 ****
 26  27  29  30  31  38  39 41  42  43  44  45  46  47  48 0
 3-21G
 ****


