%nproc=1
%NoSave
%Mem=1900MB
#P OB98/GEN NMR

erre ene a

0 1
  C     -386.329      38.391     183.874
  O     -386.056      37.185     184.555
  H     -385.392      38.906     183.676
  H     -386.966      39.032     184.493
  H     -386.829      38.190     182.920
  P     -387.299      36.208     184.839
  C     -388.297      37.029     187.105
  O     -388.363      37.066     185.688
  C     -389.572      37.639     187.703
  O     -390.708      36.837     187.288
  C     -389.569      37.674     189.237
  O     -390.220      38.879     189.675
  C     -390.401      36.465     189.619
  O     -390.982      36.557     190.919
  C     -391.431      36.456     188.481
  N     -392.072      35.144     188.313
  C     -393.237      34.908     189.028
  O     -393.811      35.733     189.739
  N     -393.749      33.634     188.914
  C     -393.208      32.608     188.194
  O     -393.700      31.494     188.146
  C     -391.967      32.924     187.461
  C     -391.463      34.157     187.554
  O     -386.713      35.180     185.923
  O     -387.872      35.519     183.646
  H     -386.322      34.403     185.484
  H     -391.796      36.003     190.920
  H     -394.604      33.438     189.431
  H     -391.506      32.133     186.884
  H     -390.542      34.415     187.037
  H     -392.201      37.223     188.656
  H     -389.782      35.555     189.586
  H     -388.553      37.629     189.662
  H     -389.713      38.641     187.283
  H     -387.435      37.597     187.444
  H     -388.186      35.991     187.433
  P     -389.339      40.225     189.697
  C     -388.475      40.233     192.166
  O     -388.190      39.993     190.795
  O     -390.354      41.254     190.383
  O     -388.860      40.626     188.328
  H     -390.895      40.850     191.088
  H     -387.603      40.030     192.752
  H     -389.274      39.595     192.481
  H     -388.762      41.255     192.297

 6  7  8  9  10  11  12  13  14  15  16  27  31  32  33  34  35 0
 6-311+G(2d,p)
 ****
 36  37 0
 6-311+G(2d,p)
 ****
 1  2  3  4  5  17  18  19  20  21  22  23  24  25 0
 3-21G
 ****
 26  28  29  30  38  39  40  41  42  43  44  45 0
 3-21G
 ****


