%nproc=1
%NoSave
%Mem=1900MB
#P OB98/GEN NMR

erre ene a

0 1
  C      285.774    -332.822     -25.490
  O      285.781    -333.045     -26.888
  H      286.568    -332.122     -25.217
  H      284.810    -332.389     -25.211
  H      285.906    -333.768     -24.953
  P      287.107    -333.712     -27.498
  C      288.532    -335.793     -26.886
  O      287.554    -334.855     -26.464
  C      289.286    -336.343     -25.681
  O      290.057    -335.297     -25.056
  C      288.400    -336.916     -24.578
  O      287.961    -338.230     -24.884
  C      289.368    -336.912     -23.407
  O      290.254    -338.043     -23.502
  C      290.149    -335.610     -23.640
  N      291.321    -331.094     -21.543
  C      292.034    -331.944     -22.310
  N      291.650    -333.118     -22.848
  C      290.368    -333.380     -22.542
  C      289.506    -332.601     -21.784
  C      290.029    -331.408     -21.267
  N      289.308    -330.577     -20.419
  N      288.271    -333.213     -21.669
  C      288.395    -334.344     -22.325
  N      289.641    -334.487     -22.874
  O      288.206    -332.562     -27.293
  O      287.008    -334.130     -28.926
  H      290.653    -338.014     -24.391
  H      288.302    -332.058     -28.125
  H      293.057    -331.639     -22.519
  H      287.617    -335.090     -22.427
  H      291.214    -335.720     -23.404
  H      288.865    -336.974     -22.435
  H      287.562    -336.251     -24.352
  H      289.994    -337.102     -26.043
  H      289.241    -335.303     -27.563
  H      289.889    -330.056     -19.770
  H      288.465    -330.993     -20.047
  H      288.029    -336.605     -27.424
  P      286.659    -338.777     -24.120
  C      284.168    -338.088     -23.996
  O      285.480    -337.725     -24.411
  O      287.022    -338.528     -22.579
  O      286.328    -340.211     -24.370
  H      286.958    -339.368     -22.087
  H      283.484    -337.304     -24.248
  H      284.159    -338.242     -22.937
  H      283.874    -338.990     -24.490

 6  7  8  9  10  11  12  13  14  15  25  28  32  33  34  35 0
 6-311+G(2d,p)
 ****
 36  39  40 0
 6-311+G(2d,p)
 ****
 1  2  3  4  5  16  17  18  19  20  21  22  23  24 0
 3-21G
 ****
 26  27  29  30  31  37  38  41  42  43  44  45  46  47  48 0
 3-21G
 ****


