%nproc=1
%NoSave
%Mem=1900MB
#P OB98/GEN NMR

erre ene a

0 1
  C     -127.663    -191.390    -195.088
  O     -128.469    -190.269    -195.387
  P     -128.918    -189.265    -194.222
  C     -127.177    -187.470    -194.813
  O     -127.653    -188.367    -193.815
  C     -126.413    -186.314    -194.172
  O     -127.323    -185.386    -193.540
  C     -125.454    -186.739    -193.072
  O     -124.301    -187.380    -193.589
  C     -125.196    -185.406    -192.380
  O     -124.216    -184.641    -193.098
  C     -126.581    -184.733    -192.478
  N     -127.307    -184.773    -191.220
  C     -127.613    -183.533    -190.646
  O     -127.201    -182.493    -191.155
  N     -128.369    -183.511    -189.500
  C     -128.683    -184.624    -188.912
  N     -129.485    -184.542    -187.817
  C     -128.241    -185.949    -189.400
  C     -127.585    -185.947    -190.560
  O     -129.630    -189.899    -193.073
  O     -129.873    -188.212    -194.965
  H     -130.706    -188.130    -194.458
  H     -123.347    -185.032    -192.888
  H     -128.474    -186.839    -188.839
  H     -127.240    -186.876    -191.006
  H     -126.472    -183.688    -192.791
  H     -124.825    -185.532    -191.360
  H     -125.966    -187.417    -192.378
  H     -125.872    -185.782    -194.967
  H     -129.782    -183.621    -187.523
  H     -128.034    -187.080    -195.373
  H     -130.041    -185.328    -187.489
  H     -126.533    -188.018    -195.509
  P     -123.530    -188.391    -192.608
  C     -125.312    -190.264    -192.703
  O     -124.633    -189.313    -191.907
  O     -123.021    -187.437    -191.424
  O     -122.394    -189.123    -193.241
  H     -122.147    -187.736    -191.114
  H     -125.748    -191.023    -192.047
  H     -124.636    -190.754    -193.407
  H     -126.120    -189.770    -193.253
  H     -127.468    -191.938    -195.986
  H     -128.173    -192.020    -194.389
  H     -126.738    -191.061    -194.663

 3  4  5  6  7  8  9  10  11  12  13  24  27  28  29  30  32 0
 6-311+G(2d,p)
 ****
 34  35 0
 6-311+G(2d,p)
 ****
 1  2  14  15  16  17  18  19  20  21  22  23  25  26 0
 3-21G
 ****
 31  33  36  37  38  39  40  41  42  43  44  45  46 0
 3-21G
 ****


