%nproc=1
%NoSave
%Mem=1900MB
#P OB98/GEN NMR

erre ene a

0 1
  C       44.774     290.448    -301.512
  O       44.574     290.620    -302.900
  H       43.861     290.735    -300.988
  H       45.592     291.093    -301.171
  H       45.002     289.404    -301.283
  P       45.741     290.085    -303.869
  C       44.068     288.538    -305.176
  O       45.002     289.603    -305.210
  C       43.306     288.451    -306.500
  O       42.327     289.518    -306.543
  C       44.199     288.584    -307.733
  O       43.679     287.741    -308.764
  C       44.021     290.039    -308.142
  O       44.320     290.255    -309.516
  C       42.550     290.282    -307.745
  N       42.250     291.699    -307.554
  C       41.034     292.160    -308.072
  O       40.283     291.388    -308.663
  N       40.720     293.486    -307.941
  C       41.571     294.299    -307.404
  N       41.214     295.613    -307.325
  C       42.883     293.869    -306.885
  C       43.152     292.567    -306.987
  O       46.161     288.719    -303.150
  O       46.862     291.048    -304.070
  H       45.278     290.083    -309.655
  H       45.403     288.183    -302.863
  H       43.570     294.587    -306.456
  H       44.092     292.160    -306.626
  H       41.878     289.886    -308.519
  H       44.679     290.679    -307.547
  H       45.238     288.325    -307.533
  H       42.747     287.508    -306.516
  H       40.315     295.868    -307.713
  H       43.356     288.681    -304.355
  H       41.820     296.340    -306.978
  H       44.616     287.609    -304.993
  P       44.575     287.417    -310.047
  C       45.329     284.984    -309.597
  O       44.501     285.845    -310.363
  O       45.947     288.002    -310.041
  O       43.712     288.050    -311.248
  H       44.333     288.485    -311.865
  H       45.179     283.972    -309.911
  H       45.078     285.077    -308.561
  H       46.354     285.254    -309.741

 6  7  8  9  10  11  12  13  14  15  16  26  30  31  32  33  35 0
 6-311+G(2d,p)
 ****
 37  38 0
 6-311+G(2d,p)
 ****
 1  2  3  4  5  17  18  19  20  21  22  23  24  25 0
 3-21G
 ****
 27  28  29  34  36  39  40  41  42  43  44  45  46 0
 3-21G
 ****


