%nproc=1
%NoSave
%Mem=1900MB
#P OB98/GEN NMR

erre ene a

0 1
  C       -0.755       5.562     493.932
  O       -0.767       6.524     492.897
  H       -0.217       5.976     494.788
  H       -0.239       4.658     493.601
  H       -1.774       5.313     494.246
  P       -1.651       6.241     491.591
  C        0.323       5.757     489.999
  O       -0.746       6.631     490.328
  C        1.163       6.333     488.850
  O        0.301       6.489     487.681
  C        1.777       7.715     489.148
  O        3.002       7.795     488.401
  C        0.714       8.633     488.569
  O        1.148       9.964     488.463
  C        0.410       7.871     487.272
  N       -0.797       8.294     486.566
  C       -0.778       9.538     485.947
  O        0.180      10.305     485.942
  N       -1.937       9.899     485.306
  C       -3.072       9.151     485.215
  O       -4.068       9.510     484.603
  C       -3.033       7.848     485.895
  C       -1.912       7.481     486.528
  O       -3.021       6.831     491.595
  O       -1.701       4.640     491.509
  H       -2.561       4.322     491.841
  H        1.929       9.997     487.871
  H       -1.941      10.793     484.845
  H       -3.919       7.231     485.858
  H       -1.851       6.523     487.031
  H        1.262       7.936     486.589
  H       -0.158       8.652     489.225
  H        1.984       7.871     490.208
  H        1.936       5.604     488.579
  H       -0.103       4.792     489.698
  H        0.951       5.605     490.881
  P        4.415       7.284     488.967
  C        5.211       9.753     488.977
  O        5.518       8.404     488.634
  O        4.791       5.915     488.508
  O        4.280       7.345     490.561
  H        4.887       6.694     490.964
  H        6.028      10.386     488.701
  H        5.046       9.824     490.032
  H        4.329      10.062     488.456

 6  7  8  9  10  11  12  13  14  15  16  27  31  32  33  34  35 0
 6-311+G(2d,p)
 ****
 36  37 0
 6-311+G(2d,p)
 ****
 1  2  3  4  5  17  18  19  20  21  22  23  24  25 0
 3-21G
 ****
 26  28  29  30  38  39  40  41  42  43  44  45 0
 3-21G
 ****


