%nproc=1
%NoSave
%Mem=1900MB
#P OB98/GEN NMR

erre ene a

0 1
  C      -42.780     569.747    -476.159
  O      -41.851     568.710    -476.420
  P      -41.578     568.221    -477.919
  C      -39.110     567.526    -477.902
  O      -40.454     567.069    -477.853
  C      -38.253     566.648    -478.811
  O      -38.121     565.325    -478.218
  C      -38.819     566.449    -480.230
  O      -37.694     566.360    -481.110
  C      -39.508     565.099    -480.135
  O      -39.705     564.490    -481.405
  C      -38.532     564.367    -479.220
  N      -40.752     559.814    -479.994
  C      -40.294     560.753    -480.853
  N      -39.735     561.951    -480.567
  C      -39.675     562.144    -479.235
  C      -40.124     561.293    -478.241
  C      -40.666     560.066    -478.653
  N      -41.116     559.083    -477.795
  N      -39.935     561.869    -476.994
  C      -39.382     563.037    -477.241
  N      -39.148     563.221    -478.574
  O      -41.299     569.304    -478.905
  O      -42.896     567.409    -478.307
  H      -38.911     564.658    -481.953
  H      -43.443     567.936    -478.932
  H      -40.384     560.504    -481.904
  H      -39.131     563.784    -476.503
  H      -37.641     564.016    -479.751
  H      -40.491     565.223    -479.670
  H      -39.494     567.254    -480.551
  H      -37.241     567.077    -478.857
  H      -38.702     567.482    -476.882
  H      -41.356     558.190    -478.191
  H      -40.824     559.124    -476.817
  H      -39.082     568.566    -478.238
  P      -37.686     567.168    -482.503
  C      -35.438     568.314    -482.139
  O      -36.154     567.371    -482.909
  O      -38.538     568.398    -482.525
  O      -38.211     566.082    -483.567
  H      -38.506     566.536    -484.380
  H      -35.660     569.324    -482.491
  H      -34.363     568.128    -482.255
  H      -35.697     568.246    -481.081
  H      -42.823     569.930    -475.106
  H      -43.748     569.456    -476.510
  H      -42.471     570.638    -476.664

 3  4  5  6  7  8  9  10  11  12  22  25  29  30  31  32 0
 6-311+G(2d,p)
 ****
 33  36  37 0
 6-311+G(2d,p)
 ****
 1  2  13  14  15  16  17  18  19  20  21  23  24  26 0
 3-21G
 ****
 27  28  34  35  38  39  40  41  42  43  44  45  46  47  48 0
 3-21G
 ****


