%nproc=1
%NoSave
%Mem=1900MB
#P OB98/GEN NMR

erre ene a

0 1
  C      798.952     545.853     676.234
  O      799.698     545.075     675.315
  H      799.553     546.718     676.521
  H      798.717     545.271     677.125
  H      798.027     546.212     675.761
  P      799.078     543.681     674.816
  C      799.554     542.715     677.175
  O      799.694     542.547     675.768
  C      800.472     541.752     677.935
  O      800.037     540.385     677.654
  C      801.957     541.846     677.525
  O      802.739     541.489     678.678
  C      802.042     540.769     676.468
  O      803.383     540.446     676.170
  C      801.170     539.682     677.099
  N      800.758     538.665     676.135
  C      801.575     537.534     676.052
  O      802.581     537.439     676.751
  N      801.239     536.551     675.154
  C      800.221     536.719     674.367
  N      799.958     535.714     673.482
  C      799.372     537.922     674.385
  C      799.689     538.851     675.291
  O      799.192     543.403     673.359
  O      797.550     543.751     675.288
  H      803.905     541.268     675.988
  H      796.977     543.929     674.514
  H      798.545     538.028     673.692
  H      799.125     539.774     675.381
  H      801.702     539.184     677.928
  H      801.597     541.114     675.526
  H      802.237     542.841     677.169
  H      800.346     541.921     679.014
  H      800.575     534.908     673.497
  H      798.510     542.525     677.430
  H      799.206     535.741     672.812
  H      799.802     543.757     677.449
  P      803.073     542.530     679.863
  C      805.153     543.588     678.770
  O      804.643     542.833     679.860
  O      802.519     542.118     681.192
  O      802.422     543.918     679.389
  H      802.133     544.414     680.181
  H      806.208     543.719     678.889
  H      804.676     544.545     678.745
  H      804.959     543.069     677.855

 6  7  8  9  10  11  12  13  14  15  16  26  30  31  32  33  35 0
 6-311+G(2d,p)
 ****
 37  38 0
 6-311+G(2d,p)
 ****
 1  2  3  4  5  17  18  19  20  21  22  23  24  25 0
 3-21G
 ****
 27  28  29  34  36  39  40  41  42  43  44  45  46 0
 3-21G
 ****


