%nproc=1
%NoSave
%Mem=1900MB
#P OB98/GEN NMR

erre ene a

0 1
  C     -276.808     340.580     464.368
  O     -276.998     341.492     465.428
  H     -277.425     339.693     464.547
  H     -275.761     340.268     464.308
  H     -277.117     341.037     463.421
  P     -276.087     342.807     465.497
  C     -275.443     341.911     467.820
  O     -275.762     343.061     467.049
  C     -275.789     342.132     469.299
  O     -274.932     343.186     469.820
  C     -277.244     342.557     469.531
  O     -277.709     341.942     470.739
  C     -277.134     344.056     469.705
  O     -278.228     344.585     470.437
  C     -275.768     344.211     470.383
  N     -275.216     345.543     470.175
  C     -275.647     346.545     471.061
  O     -276.447     346.273     471.963
  N     -275.234     347.835     470.863
  C     -274.489     348.122     469.836
  N     -274.140     349.429     469.673
  C     -274.030     347.110     468.863
  C     -274.421     345.857     469.094
  O     -276.605     344.001     464.763
  O     -274.676     342.318     464.903
  H     -278.208     344.216     471.356
  H     -274.650     342.466     463.936
  H     -273.417     347.401     468.020
  H     -274.144     345.044     468.425
  H     -275.847     344.024     471.465
  H     -277.126     344.544     468.724
  H     -277.909     342.285     468.699
  H     -275.549     341.222     469.857
  H     -274.506     350.098     470.354
  H     -274.362     341.722     467.719
  H     -273.604     349.783     468.894
  H     -275.987     341.040     467.442
  P     -278.517     340.551     470.693
  C     -280.783     341.606     470.171
  O     -280.049     340.824     471.104
  O     -277.867     339.423     471.435
  O     -278.608     340.219     469.122
  H     -278.630     339.253     469.003
  H     -281.785     341.736     470.524
  H     -280.800     341.108     469.224
  H     -280.316     342.563     470.062

 6  7  8  9  10  11  12  13  14  15  16  26  30  31  32  33  35 0
 6-311+G(2d,p)
 ****
 37  38 0
 6-311+G(2d,p)
 ****
 1  2  3  4  5  17  18  19  20  21  22  23  24  25 0
 3-21G
 ****
 27  28  29  34  36  39  40  41  42  43  44  45  46 0
 3-21G
 ****


