%nproc=1
%NoSave
%Mem=1900MB
#P OB98/GEN NMR

erre ene a

0 1
  C      110.813     -20.091     125.480
  O      110.760     -20.277     124.062
  P      110.764     -21.801     123.544
  C      112.288     -20.997     121.599
  O      111.178     -21.797     121.991
  C      112.066     -20.343     120.234
  O      111.431     -21.296     119.346
  C      111.180     -19.091     120.259
  O      111.687     -18.153     119.297
  C      109.845     -19.596     119.740
  O      109.047     -18.548     119.197
  C      110.320     -20.631     118.722
  N      105.884     -21.302     116.387
  C      106.696     -20.185     116.435
  N      106.251     -19.087     115.787
  N      107.843     -20.150     117.061
  C      108.177     -21.331     117.637
  C      107.463     -22.508     117.650
  C      106.176     -22.518     116.988
  O      105.387     -23.460     116.955
  N      108.129     -23.491     118.341
  C      109.238     -22.908     118.748
  N      109.308     -21.595     118.354
  O      109.210     -22.184     123.532
  O      111.546     -22.728     124.412
  H      108.888     -17.909     119.917
  H      109.057     -22.975     124.082
  H      105.001     -21.268     115.908
  H      110.005     -23.374     119.350
  H      110.683     -20.152     117.805
  H      109.289     -20.062     120.562
  H      105.410     -19.066     115.232
  H      111.099     -18.614     121.239
  H      106.854     -18.274     115.773
  H      113.046     -20.106     119.805
  H      113.185     -21.623     121.556
  H      112.452     -20.231     122.364
  P      112.793     -17.119     119.826
  C      112.234     -14.976     118.461
  O      113.067     -16.111     118.611
  O      114.126     -18.005     119.891
  O      112.464     -16.490     121.139
  H      114.736     -17.647     120.564
  H      111.600     -14.810     119.334
  H      111.600     -15.116     117.582
  H      112.863     -14.095     118.310
  H      110.805     -19.045     125.703
  H      111.710     -20.531     125.864
  H      109.964     -20.559     125.933

 3  4  5  6  7  8  9  10  11  12  23  26  30  31  33  0
 6-311+G(2d,p)
 ****
 35  36  37  38 0
 6-311+G(2d,p)
 ****
 1  2  13  14  15  16  17  18  19  20  21  22  24  25  27  28  29 0
 3-21G
 ****
 32  34  39  40  41  42  43  44  45  46  47  48  49 0
 3-21G
 ****


