%nproc=1
%NoSave
%Mem=1900MB
#P OB98/GEN NMR

erre ene a

0 1
  C      185.260    -484.200    -613.111
  O      186.418    -485.006    -613.218
  P      187.800    -484.388    -612.672
  C      188.906    -485.101    -614.922
  O      188.672    -484.060    -613.971
  C      188.484    -484.649    -616.323
  O      187.140    -484.135    -616.287
  C      189.333    -483.531    -616.893
  O      190.568    -484.037    -617.371
  C      188.419    -482.992    -617.992
  O      188.587    -483.738    -619.211
  C      187.011    -483.219    -617.395
  N      186.365    -481.981    -616.996
  C      186.116    -481.048    -618.015
  O      186.463    -481.319    -619.172
  N      185.524    -479.861    -617.703
  C      185.207    -479.609    -616.464
  N      184.629    -478.410    -616.205
  C      185.481    -480.533    -615.354
  C      186.056    -481.695    -615.678
  O      188.539    -485.660    -612.033
  O      187.639    -483.274    -611.692
  H      189.519    -483.606    -619.477
  H      189.161    -485.387    -611.328
  H      185.196    -480.284    -614.341
  H      186.287    -482.441    -614.934
  H      186.366    -483.720    -618.134
  H      188.637    -481.949    -618.218
  H      189.507    -482.748    -616.142
  H      188.494    -485.523    -616.980
  H      184.462    -477.783    -616.982
  H      188.320    -485.981    -614.645
  H      184.325    -478.126    -615.280
  H      189.974    -485.368    -614.903
  P      191.903    -483.557    -616.633
  C      193.166    -483.722    -618.868
  O      192.788    -482.880    -617.790
  O      192.683    -484.945    -616.384
  O      191.745    -482.765    -615.377
  H      193.477    -484.782    -615.850
  H      193.623    -483.121    -619.642
  H      192.294    -484.238    -619.275
  H      193.906    -484.463    -618.510
  H      184.419    -484.729    -613.508
  H      185.404    -483.294    -613.662
  H      185.081    -483.967    -612.082

 3  4  5  6  7  8  9  10  11  12  13  21  23  27  28  29  30  32 0
 6-311+G(2d,p)
 ****
 34  35 0
 6-311+G(2d,p)
 ****
 1  2  14  15  16  17  18  19  20  22  24  25  26 0
 3-21G
 ****
 31  33  36  37  38  39  40  41  42  43  44  45  46 0
 3-21G
 ****


