%nproc=1
%NoSave
%Mem=1900MB
#P OB98/GEN NMR

erre ene a

0 1
  C      396.836     -80.551     863.402
  O      396.521     -79.534     862.451
  P      397.289     -79.563     861.031
  C      394.927     -79.964     860.075
  O      396.319     -80.257     859.959
  C      394.151     -80.591     858.886
  O      394.373     -79.851     857.674
  C      394.567     -82.005     858.578
  O      394.055     -82.918     859.545
  C      394.017     -82.184     857.165
  O      392.615     -82.497     857.202
  C      394.213     -80.768     856.569
  N      395.341     -80.687     855.654
  C      395.028     -80.850     854.295
  O      393.874     -81.090     853.940
  N      396.054     -80.756     853.365
  C      397.263     -80.519     853.767
  N      398.228     -80.437     852.818
  C      397.633     -80.357     855.192
  C      396.617     -80.449     856.063
  O      398.695     -80.057     861.062
  O      397.221     -78.007     860.585
  H      392.311     -82.516     856.277
  H      398.019     -77.822     860.031
  H      398.645     -80.144     855.485
  H      396.809     -80.338     857.130
  H      393.309     -80.456     856.030
  H      394.525     -82.982     856.628
  H      395.664     -82.085     858.551
  H      393.090     -80.552     859.133
  H      397.949     -80.557     851.860
  H      394.777     -78.895     860.095
  H      399.196     -80.194     853.023
  H      394.563     -80.374     861.020
  P      394.997     -83.284     860.797
  C      393.056     -83.646     862.479
  O      394.218     -82.901     862.131
  O      396.166     -82.175     860.701
  O      395.569     -84.660     860.766
  H      397.008     -82.563     861.010
  H      392.840     -83.468     863.546
  H      393.207     -84.714     862.323
  H      392.198     -83.311     861.877
  H      396.254     -80.404     864.288
  H      397.876     -80.501     863.647
  H      396.614     -81.511     862.985

 3  4  5  6  7  8  9  10  11  12  13  23  27  28  29  30  32 0
 6-311+G(2d,p)
 ****
 34  35 0
 6-311+G(2d,p)
 ****
 1  2  14  15  16  17  18  19  20  21  22  24  25  26 0
 3-21G
 ****
 31  33  36  37  38  39  40  41  42  43  44  45  46 0
 3-21G
 ****


