%nproc=1
%NoSave
%Mem=1900MB
#P OB98/GEN NMR

erre ene a

0 1
  C      151.400      83.532     -61.753
  O      150.962      84.033     -60.506
  H      150.523      83.271     -62.352
  H      152.014      82.638     -61.622
  H      151.970      84.299     -62.285
  P      152.057      84.246     -59.351
  C      151.016      82.233     -58.113
  O      152.209      82.816     -58.634
  C      150.932      80.747     -58.471
  O      151.089      80.569     -59.893
  C      152.027      79.902     -57.840
  O      151.912      79.759     -56.440
  C      152.035      78.663     -58.724
  O      151.086      77.678     -58.329
  C      151.637      79.251     -60.100
  N      152.758      79.268     -61.032
  C      152.441      79.552     -62.356
  O      151.293      79.758     -62.750
  N      153.489      79.550     -63.234
  C      154.784      79.248     -62.931
  O      155.673      79.224     -63.773
  C      155.055      78.931     -61.520
  C      154.045      78.955     -60.647
  O      151.790      85.375     -58.401
  O      153.432      84.395     -60.155
  H      151.312      77.411     -57.417
  H      154.135      84.791     -59.587
  H      153.280      79.764     -64.196
  H      156.071      78.685     -61.243
  H      154.219      78.722     -59.598
  H      150.837      78.651     -60.550
  H      153.015      78.180     -58.726
  H      152.986      80.406     -58.011
  H      149.938      80.381     -58.190
  H      150.167      82.760     -58.560
  H      150.984      82.367     -57.027
  P      153.018      80.281     -55.412
  C      153.675      77.847     -54.783
  O      154.119      79.123     -55.229
  O      152.522      80.995     -54.197
  O      153.808      81.358     -56.317
  H      154.096      82.081     -55.726
  H      154.512      77.184     -54.709
  H      152.967      77.451     -55.481
  H      153.212      77.946     -53.823

 6  7  8  9  10  11  12  13  14  15  16  26  31  32  33  34  35 0
 6-311+G(2d,p)
 ****
 36  37 0
 6-311+G(2d,p)
 ****
 1  2  3  4  5  17  18  19  20  21  22  23  24  25 0
 3-21G
 ****
 27  28  29  30  38  39  40  41  42  43  44  45 0
 3-21G
 ****


