%nproc=1
%NoSave
%Mem=1900MB
#P OB98/GEN NMR

erre ene a

0 1
  C      -47.604    -372.868     498.270
  O      -46.461    -372.111     497.917
  P      -46.405    -370.543     498.236
  C      -46.696    -368.405     496.782
  O      -46.957    -369.781     496.939
  C      -46.926    -367.957     495.331
  O      -45.885    -368.545     494.516
  C      -48.247    -368.415     494.722
  O      -48.520    -367.612     493.574
  C      -47.916    -369.825     494.285
  O      -48.818    -370.311     493.297
  C      -46.439    -369.696     493.832
  N      -45.664    -370.905     494.156
  C      -45.983    -372.067     493.459
  O      -46.812    -372.091     492.550
  N      -45.379    -373.213     493.892
  C      -44.542    -373.304     494.970
  O      -44.262    -374.359     495.532
  C      -44.063    -372.023     495.512
  C      -44.654    -370.897     495.105
  O      -44.837    -370.235     498.224
  O      -47.042    -370.143     499.520
  H      -48.666    -371.281     493.226
  H      -44.484    -370.249     499.134
  H      -45.718    -374.072     493.483
  H      -43.283    -372.048     496.265
  H      -44.356    -369.942     495.524
  H      -46.367    -369.528     492.748
  H      -47.983    -370.495     495.152
  H      -49.094    -368.390     495.414
  H      -46.827    -366.866     495.271
  H      -45.669    -368.194     497.095
  H      -47.343    -367.820     497.442
  P      -49.925    -366.841     493.514
  C      -52.241    -367.605     492.707
  O      -51.052    -367.971     493.378
  O      -50.017    -365.722     492.532
  O      -50.121    -366.325     495.017
  H      -50.776    -365.606     495.039
  H      -52.668    -368.491     492.232
  H      -52.050    -366.847     491.935
  H      -52.959    -367.209     493.427
  H      -47.460    -373.888     497.980
  H      -48.462    -372.473     497.768
  H      -47.754    -372.815     499.328

 3  4  5  6  7  8  9  10  11  12  13  23  28  29  30  31  32 0
 6-311+G(2d,p)
 ****
 33  34 0
 6-311+G(2d,p)
 ****
 1  2  14  15  16  17  18  19  20  21  22  24  25  26  27 0
 3-21G
 ****
 35  36  37  38  39  40  41  42  43  44  45 0
 3-21G
 ****


