%nproc=1
%NoSave
%Mem=1900MB
#P OB98/GEN NMR

erre ene a

0 1
  C      -68.101     -68.109    -455.777
  O      -66.693     -68.196    -455.669
  H      -68.452     -67.297    -455.138
  H      -68.567     -69.039    -455.448
  H      -68.390     -67.893    -456.810
  P      -65.935     -69.324    -456.516
  C      -66.151     -71.886    -456.762
  O      -66.616     -70.717    -456.100
  C      -67.276     -72.908    -456.869
  O      -68.447     -72.309    -457.460
  C      -66.930     -74.124    -457.728
  O      -66.162     -75.055    -456.981
  C      -68.322     -74.629    -458.066
  O      -68.878     -75.320    -456.929
  C      -69.079     -73.308    -458.306
  N      -71.851     -71.608    -462.199
  C      -72.252     -72.060    -460.955
  N      -73.585     -72.107    -460.734
  N      -71.421     -72.454    -460.022
  C      -70.126     -72.418    -460.410
  C      -69.609     -72.006    -461.622
  C      -70.532     -71.519    -462.621
  O      -70.217     -71.094    -463.732
  N      -68.250     -72.176    -461.667
  C      -67.939     -72.655    -460.477
  N      -69.046     -72.836    -459.680
  O      -64.437     -69.332    -456.421
  O      -66.443     -69.093    -458.014
  H      -69.782     -75.590    -457.183
  H      -65.843     -68.502    -458.505
  H      -72.541     -71.336    -462.877
  H      -66.936     -72.884    -460.140
  H      -70.134     -73.375    -458.012
  H      -68.339     -75.321    -458.906
  H      -74.251     -72.093    -461.494
  H      -66.428     -73.834    -458.659
  H      -73.899     -72.482    -459.847
  H      -67.550     -73.213    -455.852
  H      -65.319     -72.289    -456.178
  H      -65.783     -71.636    -457.767
  P      -65.179     -76.094    -457.715
  C      -65.692     -77.801    -459.586
  O      -66.150     -77.170    -458.398
  O      -64.123     -76.677    -456.843
  O      -64.611     -75.292    -458.971
  H      -63.791     -74.772    -458.773
  H      -66.433     -78.490    -459.932
  H      -64.783     -78.327    -459.383
  H      -65.515     -77.060    -460.338

 6  7  8  9  10  11  12  13  14  15  26  29  33  34 0
 6-311+G(2d,p)
 ****
 36  38  39  40  41 0
 6-311+G(2d,p)
 ****
 1  2  3  4  5  16  17  18  19  20  21  22  23  24  25 0
 3-21G
 ****
 27  28  30  31  32  35  37  42  43  44  45  46  47 0
 3-21G
 ****
 48  49 0
 3-21G
 ****


