%nproc=1
%NoSave
%Mem=1900MB
#P OB98/GEN NMR

erre ene a

0 1
  C     -472.721    -534.604     513.264
  O     -471.504    -535.297     513.473
  H     -473.359    -535.205     512.609
  H     -472.534    -533.640     512.781
  H     -473.240    -534.448     514.220
  P     -470.417    -534.566     514.402
  C     -469.325    -536.810     515.087
  O     -469.150    -535.552     514.461
  C     -468.994    -537.950     514.109
  O     -470.035    -538.096     513.121
  C     -467.690    -537.744     513.343
  O     -466.568    -538.152     514.116
  C     -467.907    -538.630     512.124
  O     -467.648    -540.014     512.430
  C     -469.408    -538.416     511.838
  N     -469.683    -537.313     506.920
  C     -469.438    -538.506     507.551
  N     -469.165    -539.575     506.751
  N     -469.436    -538.665     508.849
  C     -469.685    -537.517     509.524
  C     -469.961    -536.269     509.005
  C     -469.980    -536.118     507.560
  O     -470.252    -535.097     506.937
  N     -470.179    -535.358     510.007
  C     -470.003    -536.037     511.121
  N     -469.680    -537.355     510.874
  O     -471.035    -534.673     515.874
  O     -470.121    -533.144     514.035
  H     -466.687    -540.174     512.425
  H     -470.753    -533.904     516.394
  H     -469.687    -537.262     505.909
  H     -470.090    -535.633     512.122
  H     -469.896    -539.326     511.457
  H     -467.259    -538.364     511.298
  H     -468.829    -539.453     505.794
  H     -467.586    -536.687     513.019
  H     -468.970    -540.459     507.202
  H     -468.957    -538.879     514.689
  H     -470.380    -536.913     515.392
  H     -468.683    -536.878     515.965
  P     -465.262    -537.211     514.098
  C     -464.878    -537.189     516.666
  O     -464.398    -537.602     515.388
  O     -465.840    -535.761     514.459
  O     -464.508    -537.212     512.794
  H     -465.185    -535.066     514.205
  H     -464.201    -537.520     517.425
  H     -465.844    -537.615     516.839
  H     -464.949    -536.122     516.692

 6  7  8  9  10  11  12  13  14  15  26  29  33  34 0
 6-311+G(2d,p)
 ****
 36  38  39  40  41 0
 6-311+G(2d,p)
 ****
 1  2  3  4  5  16  17  18  19  20  21  22  23  24  25 0
 3-21G
 ****
 27  28  30  31  32  35  37  42  43  44  45  46  47 0
 3-21G
 ****
 48  49 0
 3-21G
 ****


