%nproc=1
%NoSave
%Mem=1900MB
#P OB98/GEN NMR

erre ene a

0 1
  C      646.424    -618.596     421.267
  O      645.072    -618.246     420.937
  P      644.035    -619.436     420.647
  C      645.021    -619.735     418.254
  O      643.859    -619.574     419.058
  C      644.650    -620.403     416.919
  O      644.191    -621.765     417.104
  C      643.521    -619.681     416.172
  O      644.004    -618.563     415.423
  C      643.051    -620.778     415.218
  O      643.937    -620.851     414.096
  C      643.181    -622.031     416.087
  N      638.362    -623.403     415.325
  C      639.374    -623.120     414.415
  N      639.043    -623.211     413.108
  N      640.576    -622.776     414.754
  C      640.775    -622.725     416.100
  C      639.856    -622.980     417.102
  C      638.518    -623.359     416.710
  O      637.582    -623.608     417.474
  N      640.429    -622.829     418.345
  C      641.685    -622.501     418.101
  N      641.934    -622.395     416.741
  O      642.629    -618.809     421.114
  O      644.335    -620.708     421.379
  H      643.698    -620.096     413.502
  H      642.026    -619.511     421.401
  H      637.457    -623.669     415.012
  H      642.436    -622.317     418.848
  H      643.511    -622.900     415.523
  H      642.048    -620.584     414.828
  H      638.138    -623.535     412.777
  H      642.704    -619.395     416.862
  H      639.775    -623.040     412.431
  H      645.541    -620.405     416.284
  H      645.759    -620.351     418.776
  H      645.480    -618.755     418.093
  P      643.714    -617.092     416.006
  C      642.265    -616.313     414.010
  O      643.462    -616.157     414.734
  O      645.170    -616.651     416.544
  O      642.691    -617.039     417.087
  H      645.059    -616.052     417.294
  H      642.183    -615.497     413.280
  H      641.396    -616.285     414.662
  H      642.279    -617.268     413.456
  H      646.993    -617.705     421.432
  H      646.856    -619.151     420.460
  H      646.431    -619.193     422.155

 3  4  5  6  7  8  9  10  11  12  23  26  30  31 0
 6-311+G(2d,p)
 ****
 33  35  36  37  38 0
 6-311+G(2d,p)
 ****
 1  2  13  14  15  16  17  18  19  20  21  22  24  25 0
 3-21G
 ****
 27  28  29  32  34  39  40  41  42  43  44  45  46  47  48  49 0
 3-21G
 ****


