%nproc=1
%NoSave
%Mem=1900MB
#P OB98/GEN NMR

erre ene a

0 1
  C       48.145    -894.470     737.291
  O       48.605    -893.490     736.373
  P       48.199    -893.640     734.818
  C       50.417    -894.880     734.566
  O       49.053    -894.830     734.182
  C       50.913    -896.340     734.552
  O       50.730    -896.950     733.264
  C       52.406    -896.460     734.855
  O       52.668    -896.260     736.229
  C       52.683    -897.870     734.352
  O       52.309    -898.870     735.316
  C       51.737    -897.970     733.109
  N       52.432    -897.850     731.842
  C       53.125    -898.980     731.416
  O       53.151    -900.000     732.109
  N       53.781    -898.920     730.206
  C       53.774    -897.840     729.499
  N       54.431    -897.830     728.327
  C       53.063    -896.620     729.938
  C       52.420    -896.690     731.093
  O       48.171    -892.340     734.025
  O       46.698    -894.260     734.909
  H       51.424    -898.620     735.612
  H       46.190    -893.970     734.136
  H       53.076    -895.720     729.311
  H       51.898    -895.820     731.505
  H       51.220    -898.940     733.106
  H       53.730    -898.020     734.117
  H       52.971    -895.750     734.268
  H       50.336    -896.900     735.298
  H       54.928    -898.680     728.048
  H       50.532    -894.460     735.566
  H       54.435    -897.050     727.683
  H       51.014    -894.270     733.887
  P       53.365    -894.890     736.656
  C       55.762    -895.870     736.484
  O       54.821    -894.880     736.054
  O       53.589    -895.090     738.250
  O       52.542    -893.660     736.381
  H       53.521    -894.240     738.683
  H       56.578    -895.920     735.754
  H       55.277    -896.870     736.514
  H       56.164    -895.630     737.450
  H       48.496    -894.231     738.273
  H       48.517    -895.431     737.003
  H       47.075    -894.487     737.289

 3  4  5  6  7  8  9  10  11  12  13  23  27  28  29  30  32 0
 6-311+G(2d,p)
 ****
 34  35 0
 6-311+G(2d,p)
 ****
 1  2  14  15  16  17  18  19  20  21  22  24  25  26 0
 3-21G
 ****
 31  33  36  37  38  39  40  41  42  43  44  45  46 0
 3-21G
 ****


