%nproc=1
%NoSave
%Mem=1900MB
#P OB98/GEN NMR

erre ene a

0 1
  C      231.859     -34.309    -895.800
  O      231.335     -34.841    -897.000
  H      231.032     -34.006    -895.150
  H      232.482     -33.442    -896.010
  H      232.452     -35.077    -895.280
  P      232.404     -35.387    -898.070
  C      231.577     -37.847    -897.800
  O      232.656     -36.927    -897.690
  C      232.033     -39.252    -897.400
  O      233.125     -39.655    -898.300
  C      232.585     -39.345    -895.960
  O      232.326     -40.670    -895.460
  C      234.086     -39.169    -896.200
  O      234.802     -39.600    -895.060
  C      234.246     -40.001    -897.450
  N      238.872     -41.868    -898.510
  C      237.824     -42.394    -897.860
  N      236.610     -41.842    -897.630
  C      236.546     -40.612    -898.170
  C      237.548     -39.928    -898.860
  C      238.776     -40.622    -899.000
  N      239.864     -40.064    -899.650
  N      237.117     -38.682    -899.250
  C      235.859     -38.601    -898.790
  N      235.489     -39.748    -898.140
  O      233.758     -34.661    -897.640
  O      232.066     -35.134    -899.510
  H      234.785     -38.928    -894.350
  H      233.863     -33.826    -898.130
  H      237.959     -43.411    -897.480
  H      235.211     -37.745    -898.920
  H      234.190     -41.091    -897.260
  H      234.341     -38.120    -896.380
  H      232.156     -38.609    -895.290
  H      231.210     -39.963    -897.550
  H      231.209     -37.848    -898.830
  H      230.765     -37.535    -897.120
  H      240.701     -40.612    -899.700
  H      239.803     -39.117    -900.000
  P      230.821     -41.198    -895.390
  C      231.013     -42.962    -897.310
  O      230.369     -41.793    -896.830
  O      229.985     -39.816    -895.340
  O      230.484     -42.054    -894.210
  H      229.294     -39.876    -894.650
  H      230.607     -43.226    -898.264
  H      230.855     -43.765    -896.620
  H      232.062     -42.777    -897.408

 6  7  8  9  10  11  12  13  14  15  25  28  32  33  34  35 0
 6-311+G(2d,p)
 ****
 36  37  40 0
 6-311+G(2d,p)
 ****
 1  2  3  4  5  16  17  18  19  20  21  22  23  24 0
 3-21G
 ****
 26  27  29  30  31  38  39 41  42  43  44  45  46  47  48 0
 3-21G
 ****


