%nproc=1
%NoSave
%Mem=1900MB
#P OB98/GEN NMR

erre ene a

0 1
  C     -467.714     265.686     323.971
  O     -468.433     264.458     323.842
  P     -469.605     264.338     322.761
  C     -468.390     262.948     320.952
  O     -469.425     262.983     321.927
  C     -468.846     262.156     319.721
  O     -467.815     262.098     318.713
  C     -469.161     260.697     320.042
  O     -470.309     260.448     320.832
  C     -469.104     260.046     318.672
  O     -470.335     260.209     317.961
  C     -467.975     260.857     317.985
  N     -466.712     260.116     317.921
  C     -466.212     259.874     316.643
  O     -466.797     260.207     315.617
  N     -465.027     259.194     316.592
  C     -464.321     258.717     317.657
  O     -463.276     258.095     317.550
  C     -464.912     258.980     318.977
  C     -466.065     259.660     319.049
  O     -469.864     265.557     321.942
  O     -470.890     264.004     323.671
  H     -470.616     261.132     318.077
  H     -471.648     264.518     323.318
  H     -464.643     259.013     315.672
  H     -464.385     258.613     319.845
  H     -466.516     259.867     320.016
  H     -468.262     261.121     316.968
  H     -468.914     258.974     318.740
  H     -468.309     260.296     320.620
  H     -469.710     262.664     319.286
  H     -467.487     262.501     321.379
  H     -468.121     263.977     320.681
  P     -470.260     259.661     322.231
  C     -469.467     261.277     324.096
  O     -470.559     260.710     323.405
  O     -469.141     258.694     322.433
  O     -471.645     258.832     322.161
  H     -471.514     257.987     322.631
  H     -469.851     261.942     324.866
  H     -468.845     261.862     323.404
  H     -468.861     260.497     324.570
  H     -466.973     265.587     324.736
  H     -468.393     266.471     324.232
  H     -467.238     265.920     323.042

 3  4  5  6  7  8  9  10  11  12  13  23  28  29  30  31  32 0
 6-311+G(2d,p)
 ****
 33  34 0
 6-311+G(2d,p)
 ****
 1  2  14  15  16  17  18  19  20  21  22  24  25  26  27 0
 3-21G
 ****
 35  36  37  38  39  40  41  42  43  44  45 0
 3-21G
 ****


