%nproc=1
%NoSave
%Mem=1900MB
#P OB98/GEN NMR

erre ene a

0 1
  C      280.147     880.014    -488.748
  O      278.871     880.442    -488.317
  H      280.114     878.938    -488.915
  H      280.893     880.227    -487.978
  H      280.427     880.507    -489.683
  P      278.597     882.016    -488.158
  C      277.343     882.114    -485.908
  O      277.235     882.172    -487.325
  C      276.098     882.728    -485.268
  O      276.009     884.131    -485.585
  C      274.786     882.116    -485.771
  O      274.557     880.842    -485.209
  C      273.800     883.194    -485.355
  O      273.432     883.060    -483.980
  C      274.609     884.488    -485.587
  N      274.235     885.154    -486.833
  C      273.457     886.298    -486.705
  O      273.080     886.756    -485.622
  N      273.045     886.875    -487.882
  C      273.218     886.345    -489.128
  O      272.632     886.758    -490.128
  C      274.109     885.176    -489.207
  C      274.558     884.639    -488.075
  O      278.665     882.814    -489.422
  O      279.711     882.487    -487.107
  H      280.439     882.930    -487.586
  H      273.230     882.109    -483.845
  H      272.437     887.680    -487.794
  H      274.334     884.771    -490.186
  H      275.193     883.753    -488.098
  H      274.467     885.186    -484.751
  H      272.874     883.141    -485.951
  H      274.808     882.052    -486.868
  H      276.184     882.628    -484.179
  H      278.227     882.688    -485.596
  H      277.469     881.071    -485.604
  P      273.872     879.688    -486.081
  C      271.357     879.883    -485.538
  O      272.569     879.169    -485.295
  O      274.789     878.609    -486.553
  O      273.235     880.474    -487.331
  H      273.506     880.031    -488.152
  H      270.566     879.448    -484.964
  H      271.114     879.829    -486.579
  H      271.483     880.907    -485.254

 6  7  8  9  10  11  12  13  14  15  16  27  31  32  33  34  35 0
 6-311+G(2d,p)
 ****
 36  37 0
 6-311+G(2d,p)
 ****
 1  2  3  4  5  17  18  19  20  21  22  23  24  25 0
 3-21G
 ****
 26  28  29  30  38  39  40  41  42  43  44  45 0
 3-21G
 ****


