%nproc=1
%NoSave
%Mem=1900MB
#P OB98/GEN NMR

erre ene a

0 1
  C     -336.228     490.607     -91.362
  O     -335.781     491.912     -90.976
  P     -334.199     492.175     -91.018
  C     -333.783     490.888     -88.796
  O     -333.646     492.108     -89.509
  C     -332.763     490.822     -87.659
  O     -331.422     490.618     -88.162
  C     -332.694     492.101     -86.834
  O     -333.800     492.209     -85.960
  C     -331.349     491.912     -86.131
  O     -331.487     491.020     -85.010
  C     -330.508     491.239     -87.229
  N     -325.751     492.063     -88.933
  C     -326.299     491.032     -88.252
  N     -327.576     490.894     -87.833
  C     -328.314     491.949     -88.203
  C     -327.898     493.065     -88.900
  C     -326.543     493.106     -89.275
  N     -325.980     494.168     -89.956
  N     -328.945     493.948     -89.089
  C     -329.975     493.377     -88.485
  N     -329.649     492.165     -87.942
  O     -334.087     493.727     -91.394
  O     -333.475     491.312     -91.998
  H     -330.586     490.711     -84.774
  H     -333.768     493.823     -92.307
  H     -325.624     490.218     -88.002
  H     -330.972     493.806     -88.418
  H     -329.858     490.448     -86.826
  H     -330.925     492.846     -85.756
  H     -332.647     492.978     -87.496
  H     -333.021     489.976     -87.012
  H     -333.649     490.035     -89.472
  H     -324.985     494.146     -90.117
  H     -326.548     494.981     -90.140
  H     -334.809     490.818     -88.409
  P     -335.186     492.731     -86.574
  C     -334.541     495.219     -86.510
  O     -335.347     494.199     -85.943
  O     -336.252     491.874     -85.754
  O     -335.284     492.655     -88.066
  H     -336.045     491.855     -84.800
  H     -334.775     496.164     -86.011
  H     -334.751     495.316     -87.579
  H     -333.484     494.988     -86.353
  H     -337.295     490.560     -91.292
  H     -335.795     489.875     -90.713
  H     -335.928     490.411     -92.370

 3  4  5  6  7  8  9  10  11  12  22  25  29  30  31  32 0
 6-311+G(2d,p)
 ****
 33  36  37 0
 6-311+G(2d,p)
 ****
 1  2  13  14  15  16  17  18  19  20  21  23  24  26 0
 3-21G
 ****
 27  28  34  35  38  39  40  41  42  43  44  45  46  47  48 0
 3-21G
 ****


