%nproc=1
%NoSave
%Mem=1900MB
#P OB98/GEN NMR

erre ene a

0 1
  C      -48.268      98.570      95.992
  O      -48.959      99.585      95.293
  H      -47.197      98.682      95.806
  H      -48.585      97.589      95.632
  H      -48.450      98.649      97.068
  P      -50.522      99.759      95.605
  C      -52.578      98.175      95.460
  O      -51.166      98.288      95.547
  C      -52.970      96.719      95.210
  O      -52.549      96.349      93.867
  C      -52.325      95.723      96.184
  O      -53.265      94.678      96.451
  C      -51.168      95.158      95.379
  O      -50.729      93.881      95.821
  C      -51.779      95.135      93.974
  N      -50.766      95.061      92.923
  C      -50.192      93.818      92.675
  O      -50.534      92.767      93.215
  N      -49.176      93.810      91.755
  C      -48.676      94.895      91.097
  O      -47.749      94.826      90.298
  C      -49.317      96.181      91.407
  C      -50.314      96.204      92.294
  O      -51.077     100.460      94.278
  O      -50.848     100.532      96.839
  H      -51.027     101.430      94.358
  H      -49.980      93.616      95.249
  H      -48.749      92.918      91.564
  H      -48.939      97.066      90.913
  H      -50.794      97.139      92.562
  H      -52.476      94.296      93.875
  H      -50.314      95.844      95.422
  H      -51.991      96.170      97.126
  H      -54.064      96.639      95.238
  H      -52.941      98.788      94.630
  H      -53.027      98.538      96.391
  P      -53.910      94.624      97.921
  C      -52.890      94.546     100.334
  O      -52.669      94.515      98.930
  O      -54.555      93.162      97.921
  O      -54.865      95.740      98.178
  H      -54.029      92.514      97.422
  H      -51.953      94.462     100.844
  H      -53.523      93.730     100.614
  H      -53.360      95.470     100.601

 6  7  8  9  10  11  12  13  14  15  16  27  31  32  33  34  35 0
 6-311+G(2d,p)
 ****
 36  37 0
 6-311+G(2d,p)
 ****
 1  2  3  4  5  17  18  19  20  21  22  23  24  25 0
 3-21G
 ****
 26  28  29  30  38  39  40  41  42  43  44  45 0
 3-21G
 ****


