%nproc=1
%NoSave
%Mem=1900MB
#P OB98/GEN NMR

erre ene a

0 1
  C     -406.389     -28.575     251.621
  O     -407.049     -29.814     251.449
  H     -406.611     -27.912     250.784
  H     -406.745     -28.113     252.546
  H     -405.308     -28.731     251.700
  P     -406.643     -30.671     250.156
  C     -407.928     -32.712     251.116
  O     -407.744     -31.832     250.020
  C     -408.404     -34.076     250.626
  O     -409.728     -33.968     250.063
  C     -407.544     -34.689     249.524
  O     -406.373     -35.303     250.050
  C     -408.506     -35.724     248.955
  O     -408.532     -36.887     249.805
  C     -409.853     -34.987     249.032
  N     -412.296     -35.595     244.572
  C     -412.163     -36.403     245.651
  N     -411.513     -36.160     246.808
  C     -410.982     -34.929     246.808
  C     -411.054     -33.981     245.798
  C     -411.747     -34.352     244.632
  N     -411.818     -33.535     243.511
  N     -410.366     -32.832     246.156
  C     -409.876     -33.095     247.345
  N     -410.223     -34.343     247.787
  O     -405.328     -31.452     250.647
  O     -406.383     -29.874     248.919
  H     -408.671     -36.566     250.715
  H     -404.537     -30.968     250.347
  H     -412.635     -37.378     245.564
  H     -409.264     -32.412     247.926
  H     -410.674     -35.648     249.328
  H     -408.229     -36.063     247.951
  H     -407.301     -33.958     248.744
  H     -408.465     -34.752     251.492
  H     -408.680     -32.296     251.801
  H     -411.904     -34.054     242.643
  H     -411.171     -32.754     243.517
  H     -406.978     -32.810     251.652
  P     -405.059     -35.310     249.136
  C     -403.563     -34.180     250.925
  O     -403.802     -35.344     250.138
  O     -405.029     -33.820     248.544
  O     -405.043     -36.323     248.039
  H     -405.007     -33.850     247.564
  H     -402.703     -34.337     251.542
  H     -404.415     -33.986     251.543
  H     -403.392     -33.343     250.281

 6  7  8  9  10  11  12  13  14  15  25  28  32  33  34  35 0
 6-311+G(2d,p)
 ****
 36  39  40 0
 6-311+G(2d,p)
 ****
 1  2  3  4  5  16  17  18  19  20  21  22  23  24 0
 3-21G
 ****
 26  27  29  30  31  37  38  41  42  43  44  45  46  47  48 0
 3-21G
 ****


