%nproc=1
%NoSave
%Mem=1900MB
#P OB98/GEN NMR

erre ene a

0 1
  C      899.537    -321.047    -286.691
  O      899.142    -319.726    -286.357
  P      897.876    -319.109    -287.131
  C      897.560    -317.943    -289.437
  O      898.466    -318.524    -288.509
  C      898.272    -316.911    -290.322
  O      899.502    -317.468    -290.829
  C      897.477    -316.486    -291.540
  O      896.511    -315.481    -291.233
  C      898.595    -315.894    -292.402
  O      898.927    -314.572    -291.960
  C      899.746    -316.855    -292.120
  N      901.403    -317.961    -296.838
  C      901.348    -316.809    -296.156
  N      900.879    -316.594    -294.908
  C      900.393    -317.738    -294.373
  C      900.349    -318.984    -294.981
  C      900.904    -319.094    -296.263
  N      900.983    -320.285    -296.950
  N      899.793    -319.916    -294.117
  C      899.513    -319.226    -293.029
  N      899.874    -317.911    -293.114
  O      897.539    -317.798    -286.289
  O      896.709    -320.020    -287.272
  H      899.866    -314.422    -292.191
  H      896.600    -317.542    -286.435
  H      901.742    -315.935    -296.680
  H      899.053    -319.645    -292.138
  H      900.723    -316.346    -292.072
  H      898.307    -315.816    -293.454
  H      897.038    -317.333    -292.060
  H      898.512    -316.046    -289.684
  H      896.753    -317.448    -288.886
  H      901.544    -320.301    -297.787
  H      900.792    -321.130    -296.435
  H      897.127    -318.745    -290.060
  P      895.340    -315.259    -292.310
  C      895.254    -314.211    -294.705
  O      896.032    -314.509    -293.533
  O      894.437    -314.125    -291.629
  O      894.575    -316.484    -292.635
  H      893.526    -314.178    -291.947
  H      895.781    -313.445    -295.277
  H      894.261    -313.821    -294.406
  H      895.147    -315.110    -295.285
  H      900.386    -321.325    -286.102
  H      899.793    -321.091    -287.729
  H      898.730    -321.721    -286.493

 3  4  5  6  7  8  9  10  11  12  22  25  29  30  31  32 0
 6-311+G(2d,p)
 ****
 33  36  37 0
 6-311+G(2d,p)
 ****
 1  2  13  14  15  16  17  18  19  20  21  23  24  26 0
 3-21G
 ****
 27  28  34  35  38  39  40  41  42  43  44  45  46  47  48 0
 3-21G
 ****


