%nproc=1
%NoSave
%Mem=1900MB
#P OB98/GEN NMR

erre ene a

0 1
  C      -84.004     139.387     243.802
  O      -84.852     140.152     242.966
  H      -83.021     139.316     243.335
  H      -84.409     138.380     243.930
  H      -83.900     139.873     244.780
  P      -86.349     140.393     243.488
  C      -87.467     139.516     241.304
  O      -87.276     139.341     242.706
  C      -87.345     138.166     240.602
  O      -86.153     137.484     241.055
  C      -88.496     137.212     240.885
  O      -89.653     137.521     240.129
  C      -87.868     135.878     240.518
  O      -87.939     135.635     239.103
  C      -86.410     136.065     240.951
  N      -85.201     131.618     243.154
  C      -85.326     131.974     241.856
  N      -85.642     133.190     241.352
  C      -85.801     134.088     242.338
  C      -85.701     133.870     243.702
  C      -85.378     132.560     244.107
  N      -85.275     132.188     245.427
  N      -85.970     135.026     244.403
  C      -86.227     135.933     243.483
  N      -86.132     135.410     242.218
  O      -86.737     141.800     242.832
  O      -86.510     140.405     244.972
  H      -87.664     134.706     238.973
  H      -86.637     142.507     243.498
  H      -85.167     131.185     241.129
  H      -86.489     136.966     243.671
  H      -85.702     135.659     240.215
  H      -88.378     135.056     241.022
  H      -88.727     137.210     241.958
  H      -87.246     138.347     239.519
  H      -86.705     140.200     240.921
  H      -88.455     139.952     241.135
  H      -85.111     131.218     245.646
  H      -85.518     132.856     246.148
  P      -90.928     138.087     240.921
  C      -92.385     136.319     239.669
  O      -92.048     136.939     240.905
  O      -91.524     139.204     239.937
  O      -90.627     138.640     242.271
  H      -91.887     139.947     240.458
  H      -93.143     135.582     239.835
  H      -91.516     135.851     239.256
  H      -92.750     137.058     238.987

 6  7  8  9  10  11  12  13  14  15  25  28  32  33  34  35 0
 6-311+G(2d,p)
 ****
 36  37  40 0
 6-311+G(2d,p)
 ****
 1  2  3  4  5  16  17  18  19  20  21  22  23  24 0
 3-21G
 ****
 26  27  29  30  31  38  39 41  42  43  44  45  46  47  48 0
 3-21G
 ****


