%nproc=1
%NoSave
%Mem=1900MB
#P OB98/GEN NMR

erre ene a

0 1
  C       26.899      45.319      35.697
  O       27.239      44.284      34.772
  P       26.099      43.355      34.130
  C       26.459      40.949      34.923
  O       25.755      42.164      35.154
  C       26.212      39.888      36.002
  O       24.841      39.419      35.966
  C       27.112      38.652      35.908
  O       27.331      38.222      37.255
  C       26.231      37.667      35.163
  O       26.661      36.321      35.316
  C       24.856      37.995      35.761
  N       23.760      37.557      34.904
  C       23.912      36.328      34.261
  O       24.958      35.691      34.378
  N       22.895      35.872      33.457
  C       21.863      36.625      33.240
  N       20.900      36.130      32.415
  C       21.699      37.969      33.831
  C       22.671      38.359      34.652
  O       26.369      42.912      32.730
  O       24.784      44.274      34.183
  H       27.642      36.316      35.369
  H       24.196      44.037      33.441
  H       20.833      38.571      33.601
  H       22.642      39.326      35.140
  H       24.739      37.518      36.743
  H       26.242      37.899      34.092
  H       28.060      38.841      35.400
  H       26.353      40.375      36.976
  H       21.062      35.217      32.010
  H       27.530      41.173      34.882
  H       20.115      36.676      32.090
  H       26.175      40.554      33.942
  P       28.666      38.588      38.057
  C       30.250      36.687      37.406
  O       29.893      38.040      37.189
  O       28.677      38.161      39.488
  O       28.803      40.181      37.926
  H       29.418      40.507      38.608
  H       30.941      36.371      36.621
  H       29.366      36.043      37.381
  H       30.743      36.588      38.377
  H       27.789      45.824      36.010
  H       26.413      44.891      36.549
  H       26.241      46.018      35.224

 3  4  5  6  7  8  9  10  11  12  13  23  27  28  29  30  32 0
 6-311+G(2d,p)
 ****
 34  35 0
 6-311+G(2d,p)
 ****
 1  2  14  15  16  17  18  19  20  21  22  24  25  26 0
 3-21G
 ****
 31  33  36  37  38  39  40  41  42  43  44  45  46 0
 3-21G
 ****


