%nproc=1
%NoSave
%Mem=1900MB
#P OB98/GEN NMR

erre ene a

0 1
  C      624.103    -371.114    -183.824
  O      623.982    -370.516    -185.100
  H      624.293    -372.189    -183.928
  H      624.946    -370.656    -183.298
  H      623.191    -370.953    -183.243
  P      622.791    -371.042    -186.038
  C      622.595    -369.026    -187.668
  O      623.036    -370.360    -187.473
  C      623.576    -368.286    -188.569
  O      624.690    -367.794    -187.782
  C      624.193    -369.151    -189.667
  O      623.331    -369.281    -190.782
  C      625.422    -368.315    -190.012
  O      625.038    -367.190    -190.822
  C      625.876    -367.846    -188.626
  N      630.685    -369.594    -188.890
  C      629.989    -368.739    -189.665
  N      628.716    -368.323    -189.540
  C      628.147    -368.902    -188.459
  C      628.720    -369.788    -187.573
  C      630.064    -370.146    -187.815
  N      630.769    -371.024    -187.028
  N      627.812    -370.187    -186.613
  C      626.716    -369.511    -186.895
  N      626.862    -368.723    -188.008
  O      621.501    -370.265    -185.479
  O      622.595    -372.523    -186.071
  H      625.792    -366.568    -190.804
  H      620.689    -370.735    -185.749
  H      630.537    -368.329    -190.522
  H      625.788    -369.563    -186.332
  H      626.311    -366.835    -188.644
  H      626.174    -368.887    -190.576
  H      624.511    -370.121    -189.286
  H      623.063    -367.415    -188.993
  H      622.537    -368.522    -186.697
  H      631.658    -371.347    -187.391
  H      630.274    -371.545    -186.329
  H      621.594    -369.039    -188.127
  P      623.165    -370.750    -191.410
  C      620.627    -370.740    -192.004
  O      621.978    -370.640    -192.480
  O      622.518    -371.589    -190.213
  O      624.436    -371.366    -191.913
  H      622.739    -372.537    -190.288
  H      619.951    -370.649    -192.828
  H      620.438    -369.957    -191.299
  H      620.485    -371.689    -191.530

 6  7  8  9  10  11  12  13  14  15  25  28  32  33  34  35 0
 6-311+G(2d,p)
 ****
 36  39  40 0
 6-311+G(2d,p)
 ****
 1  2  3  4  5  16  17  18  19  20  21  22  23  24 0
 3-21G
 ****
 26  27  29  30  31  37  38  41  42  43  44  45  46  47 0
 3-21G
 ****
 48 0
 3-21G
 ****


