%nproc=1
%NoSave
%Mem=1900MB
#P OB98/GEN NMR

erre ene a

0 1
  C     -155.560     219.553      56.004
  O     -155.736     218.148      55.928
  P     -156.210     217.399      57.273
  C     -155.106     217.261      59.637
  O     -154.928     217.342      58.232
  C     -153.955     216.461      60.254
  O     -154.045     215.073      59.873
  C     -152.572     216.930      59.830
  O     -152.167     218.053      60.595
  C     -151.737     215.681      60.088
  O     -151.389     215.570      61.481
  C     -152.701     214.561      59.670
  N     -150.992     210.837      56.703
  C     -150.837     211.032      58.068
  N     -150.165     210.071      58.739
  N     -151.299     212.075      58.706
  C     -151.935     212.959      57.905
  C     -152.139     212.887      56.545
  C     -151.668     211.704      55.855
  O     -151.863     211.437      54.673
  N     -152.806     213.987      56.075
  C     -153.033     214.708      57.157
  N     -152.546     214.119      58.294
  O     -156.410     215.889      56.794
  O     -157.436     217.969      57.918
  H     -151.159     214.645      61.684
  H     -157.354     215.706      56.616
  H     -150.628     210.010      56.265
  H     -153.565     215.649      57.169
  H     -152.597     213.669      60.304
  H     -150.792     215.692      59.528
  H     -149.762     209.253      58.306
  H     -152.559     217.170      58.759
  H     -150.041     210.200      59.737
  H     -154.061     216.513      61.348
  H     -156.052     216.755      59.850
  H     -155.142     218.274      60.053
  P     -151.517     219.292      59.814
  C     -149.673     219.439      57.986
  O     -150.167     218.760      59.128
  O     -151.001     220.243      60.992
  O     -152.457     220.011      58.902
  H     -151.112     221.181      60.732
  H     -148.589     219.335      57.964
  H     -149.934     220.498      58.002
  H     -150.095     218.978      57.089
  H     -155.246     219.925      55.051
  H     -154.815     219.780      56.738
  H     -156.485     220.014      56.280

 3  4  5  6  7  8  9  10  11  12  23  26  30  31 0
 6-311+G(2d,p)
 ****
 33  35  36  37  38 0
 6-311+G(2d,p)
 ****
 1  2  13  14  15  16  17  18  19  20  21  22  24  25 0
 3-21G
 ****
 27  28  29  32  34  39  40  41  42  43  44  45  46  47  48  49 0
 3-21G
 ****


