%nproc=1
%NoSave
%Mem=1900MB
#P OB98/GEN NMR

erre ene a

0 1
  C      690.317     301.624     -94.788
  O      691.667     302.063     -94.677
  P      692.584     302.263     -95.978
  C      694.107     300.270     -95.412
  O      693.148     300.801     -96.314
  C      694.532     298.862     -95.849
  O      693.346     298.032     -95.903
  C      695.148     298.769     -97.250
  O      696.537     299.049     -97.294
  C      694.919     297.290     -97.550
  O      695.909     296.495     -96.865
  C      693.532     297.045     -96.951
  N      690.022     294.510     -99.682
  C      690.921     294.096     -98.755
  N      691.841     294.833     -98.088
  C      691.734     296.132     -98.423
  C      690.874     296.700     -99.339
  C      689.976     295.818     -99.993
  N      689.045     296.249    -100.921
  N      691.081     298.062     -99.437
  C      692.047     298.307     -98.569
  N      692.473     297.175     -97.929
  O      693.607     303.338     -95.850
  O      691.541     302.536     -97.160
  H      695.672     295.563     -97.009
  H      692.001     302.923     -97.924
  H      690.923     293.036     -98.526
  H      692.465     299.283     -98.384
  H      693.443     296.060     -96.485
  H      695.013     297.059     -98.624
  H      694.593     299.371     -97.978
  H      695.205     298.451     -95.090
  H      693.645     300.210     -94.417
  H      688.369     295.567    -101.228
  H      688.904     297.242    -101.026
  H      694.972     300.937     -95.351
  P      697.076     299.890     -98.558
  C      697.479     297.636     -99.835
  O      696.904     298.925     -99.830
  O      698.431     300.471     -98.387
  O      695.930     300.985     -98.767
  H      695.062     300.639     -99.055
  H      697.110     297.084    -100.705
  H      697.206     297.081     -98.933
  H      698.574     297.721     -99.908
  H      689.883     301.555     -93.812
  H      690.292     300.663     -95.258
  H      689.762     302.324     -95.377

 3  4  5  6  7  8  9  10  11  12  22  25  29  30  31  32 0
 6-311+G(2d,p)
 ****
 33  36  37 0
 6-311+G(2d,p)
 ****
 1  2  13  14  15  16  17  18  19  20  21  23  24  26 0
 3-21G
 ****
 27  28  34  35  38  39  40  41  42  43  44  45  46  47  48 0
 3-21G
 ****


