%nproc=1
%NoSave
%Mem=1900MB
#P OB98/GEN NMR

erre ene a

0 1
  C       43.170     141.179     -13.884
  O       44.128     141.062     -12.828
  P       44.683     142.437     -12.203
  C       43.271     142.661     -10.028
  O       44.527     142.335     -10.609
  C       43.397     143.880      -9.117
  O       42.103     144.375      -8.732
  C       44.124     143.608      -7.808
  O       45.532     143.597      -7.981
  C       43.693     144.810      -6.978
  O       44.518     145.945      -7.294
  C       42.251     145.043      -7.456
  N       38.822     146.204      -3.909
  C       39.668     147.027      -4.625
  N       39.567     148.352      -4.379
  N       40.534     146.593      -5.501
  C       40.504     145.249      -5.666
  C       39.714     144.328      -5.017
  C       38.781     144.820      -4.025
  O       38.032     144.132      -3.341
  N       39.962     143.055      -5.458
  C       40.879     143.205      -6.392
  N       41.252     144.519      -6.545
  O       43.558     143.498     -12.617
  O       46.033     142.828     -12.702
  H       45.448     145.658      -7.199
  H       43.947     144.390     -12.678
  H       38.179     146.591      -3.241
  H       41.301     142.403      -6.985
  H       42.042     146.106      -7.620
  H       43.790     144.638      -5.902
  H       38.874     148.760      -3.772
  H       43.760     142.685      -7.341
  H       40.155     148.974      -4.921
  H       43.919     144.669      -9.677
  H       42.900     141.813      -9.450
  H       42.547     142.842     -10.828
  P       46.365     142.516      -7.137
  C       45.944     140.460      -8.661
  O       46.863     141.431      -8.204
  O       45.231     141.752      -6.306
  O       47.414     143.097      -6.250
  H       45.597     141.411      -5.469
  H       44.969     140.907      -8.874
  H       45.832     139.675      -7.908
  H       46.332     140.013      -9.581
  H       42.880     140.203     -14.213
  H       43.604     141.716     -14.701
  H       42.309     141.705     -13.528

 3  4  5  6  7  8  9  10  11  12  23  26  30  31  33  0
 6-311+G(2d,p)
 ****
 35  36  37  38 0
 6-311+G(2d,p)
 ****
 1  2  13  14  15  16  17  18  19  20  21  22  24  25  27  28  29 0
 3-21G
 ****
 32  34  39  40  41  42  43  44  45  46  47  48  49 0
 3-21G
 ****


