%nproc=1
%NoSave
%Mem=1900MB
#P OB98/GEN NMR

erre ene a

0 1
  C      746.270    -691.519     949.093
  O      744.983    -691.146     948.615
  P      744.336    -692.070     947.466
  C      745.428    -690.644     945.548
  O      745.285    -691.921     946.195
  C      745.939    -690.834     944.133
  O      747.176    -691.618     944.138
  C      744.999    -691.592     943.209
  O      743.901    -690.791     942.815
  C      745.944    -692.000     942.080
  O      746.134    -690.900     941.180
  C      747.258    -692.292     942.856
  N      747.522    -693.707     943.027
  C      748.678    -694.179     942.394
  O      749.409    -693.479     941.719
  N      748.928    -695.528     942.534
  C      748.156    -696.411     943.235
  O      748.444    -697.601     943.344
  C      746.927    -695.872     943.838
  C      746.665    -694.561     943.716
  O      743.014    -691.211     947.091
  O      744.056    -693.465     947.930
  H      743.177    -690.256     947.144
  H      745.247    -690.635     940.867
  H      749.765    -695.875     942.123
  H      746.276    -696.549     944.354
  H      745.758    -694.140     944.138
  H      748.104    -691.839     942.329
  H      745.564    -692.848     941.497
  H      744.635    -692.500     943.729
  H      746.166    -689.846     943.698
  H      746.129    -690.029     946.103
  H      744.451    -690.142     945.549
  P      742.477    -691.124     943.461
  C      741.418    -692.132     941.277
  O      741.847    -692.331     942.618
  O      741.615    -689.845     943.002
  O      742.520    -691.346     944.947
  H      741.751    -689.599     942.082
  H      741.354    -693.083     940.785
  H      742.093    -691.472     940.726
  H      740.411    -691.688     941.290
  H      746.584    -690.829     949.848
  H      746.969    -691.504     948.283
  H      746.225    -692.505     949.507

 3  4  5  6  7  8  9  10  11  12  13  24  28  29  30  31  32 0
 6-311+G(2d,p)
 ****
 33  34 0
 6-311+G(2d,p)
 ****
 1  2  14  15  16  17  18  19  20  21  22  23  25  26  27 0
 3-21G
 ****
 35  36  37  38  39  40  41  42  43  44  45 0
 3-21G
 ****


