%nproc=1
%NoSave
%Mem=1900MB
#P OB98/GEN NMR

erre ene a

0 1
  C      342.164    -176.795     -72.283
  O      342.352    -178.197     -72.252
  H      342.966    -176.348     -72.878
  H      342.204    -176.386     -71.268
  H      341.204    -176.552     -72.748
  P      341.299    -179.035     -71.375
  C      341.001    -179.496     -68.839
  O      341.637    -178.708     -69.838
  C      340.684    -178.646     -67.610
  O      339.664    -177.667     -67.914
  C      340.186    -179.441     -66.408
  O      341.270    -179.981     -65.667
  C      339.429    -178.365     -65.638
  O      340.334    -177.538     -64.876
  C      338.772    -177.561     -66.771
  N      334.014    -178.084     -65.151
  C      335.148    -177.667     -64.478
  N      334.996    -177.373     -63.165
  N      336.326    -177.562     -65.033
  C      336.342    -177.948     -66.336
  C      335.292    -178.376     -67.111
  C      333.982    -178.435     -66.501
  O      332.926    -178.718     -67.067
  N      335.703    -178.656     -68.391
  C      337.006    -178.424     -68.373
  N      337.442    -178.000     -67.142
  O      341.795    -180.549     -71.543
  O      339.872    -178.889     -71.770
  H      341.060    -177.244     -65.457
  H      341.012    -181.130     -71.595
  H      333.127    -178.115     -64.687
  H      337.668    -178.545     -69.222
  H      338.694    -176.496     -66.516
  H      338.732    -178.802     -64.913
  H      334.209    -177.704     -62.630
  H      339.485    -180.230     -66.719
  H      335.842    -177.138     -62.656
  H      341.598    -178.088     -67.352
  H      341.672    -180.310     -68.554
  H      340.076    -179.915     -69.246
  P      340.959    -181.142     -64.609
  C      339.476    -181.423     -62.493
  O      339.815    -180.615     -63.612
  O      342.280    -181.154     -63.700
  O      340.717    -182.485     -65.212
  H      342.827    -181.928     -63.915
  H      338.705    -180.943     -61.927
  H      340.340    -181.558     -61.876
  H      339.128    -182.376     -62.833

 6  7  8  9  10  11  12  13  14  15  26  29  33  34 0
 6-311+G(2d,p)
 ****
 36  38  39  40  41 0
 6-311+G(2d,p)
 ****
 1  2  3  4  5  16  17  18  19  20  21  22  23  24  25 0
 3-21G
 ****
 27  28  30  31  32  35  37  42  43  44  45  46  47 0
 3-21G
 ****
 48  49 0
 3-21G
 ****


