%nproc=1
%NoSave
%Mem=1900MB
#P OB98/GEN NMR

erre ene a

0 1
  C      875.356     411.744     -72.578
  O      875.944     410.472     -72.706
  P      875.325     409.186     -71.993
  C      876.025     408.149     -69.738
  O      875.630     409.337     -70.418
  C      875.742     408.293     -68.214
  O      876.513     409.425     -67.710
  C      874.243     408.564     -67.913
  O      873.702     407.655     -66.944
  C      874.236     410.014     -67.521
  O      873.123     410.409     -66.745
  C      875.620     410.182     -66.870
  N      876.029     411.578     -66.733
  C      875.498     412.296     -65.649
  O      874.757     411.814     -64.794
  N      875.843     413.623     -65.591
  C      876.543     414.315     -66.542
  O      876.733     415.511     -66.470
  C      877.024     413.529     -67.684
  C      876.774     412.194     -67.715
  O      875.726     407.867     -72.562
  O      873.739     409.477     -72.053
  H      873.108     409.873     -65.925
  H      873.459     410.290     -71.612
  H      875.482     414.156     -64.807
  H      877.565     414.042     -68.462
  H      877.111     411.590     -68.563
  H      875.654     409.716     -65.872
  H      874.202     410.627     -68.445
  H      873.630     408.407     -68.809
  H      876.095     407.369     -67.731
  H      877.088     407.973     -69.888
  H      875.491     407.283     -70.148
  P      872.195     407.724     -66.390
  C      870.884     409.218     -64.664
  O      872.036     409.029     -65.464
  O      871.679     406.472     -65.770
  O      871.325     408.111     -67.674
  H      870.420     407.762     -67.609
  H      870.714     410.300     -64.520
  H      871.073     408.744     -63.689
  H      870.013     408.746     -65.129
  H      875.928     412.459     -73.132
  H      875.337     412.026     -71.546
  H      874.356     411.715     -72.958

 3  4  5  6  7  8  9  10  11  12  13  23  28  29  30  31  32 0
 6-311+G(2d,p)
 ****
 33  34 0
 6-311+G(2d,p)
 ****
 1  2  14  15  16  17  18  19  20  21  22  24  25  26  27 0
 3-21G
 ****
 35  36  37  38  39  40  41  42  43  44  45 0
 3-21G
 ****


