%nproc=1
%NoSave
%Mem=1900MB
#P OB98/GEN NMR

erre ene a

0 1
  C      466.582    -283.435     106.735
  O      467.237    -284.638     106.408
  H      467.104    -282.607     106.245
  H      466.618    -283.282     107.817
  H      465.541    -283.441     106.400
  P      466.450    -286.018     106.596
  C      467.129    -287.264     104.438
  O      467.280    -287.174     105.848
  C      467.916    -288.435     103.855
  O      469.328    -288.141     103.897
  C      467.714    -289.731     104.647
  O      466.588    -290.494     104.247
  C      469.015    -290.481     104.366
  O      468.920    -291.269     103.171
  C      470.038    -289.359     104.184
  N      473.775    -291.245     107.126
  C      473.070    -291.872     106.113
  N      473.372    -293.167     105.890
  N      472.139    -291.272     105.410
  C      471.880    -290.010     105.815
  C      472.501    -289.293     106.817
  C      473.574    -289.937     107.540
  O      474.241    -289.421     108.429
  N      471.936    -288.046     106.970
  C      470.923    -288.049     106.124
  N      470.899    -289.187     105.343
  O      465.167    -285.851     105.646
  O      466.031    -286.337     108.000
  H      468.446    -292.099     103.393
  H      464.414    -286.343     106.023
  H      474.498    -291.744     107.611
  H      470.208    -287.239     105.999
  H      470.698    -289.549     103.327
  H      469.250    -291.174     105.182
  H      474.015    -293.699     106.457
  H      467.662    -289.525     105.720
  H      472.747    -293.713     105.290
  H      467.649    -288.565     102.800
  H      467.496    -286.322     104.027
  H      466.069    -287.349     104.173
  P      465.737    -291.332     105.309
  C      463.697    -291.397     103.657
  O      464.562    -292.081     104.537
  O      464.970    -290.187     106.128
  O      466.528    -292.227     106.205
  H      465.430    -289.999     106.969
  H      462.986    -292.085     103.249
  H      464.267    -290.961     102.863
  H      463.182    -290.626     104.191

 6  7  8  9  10  11  12  13  14  15  26  29  33  34 0
 6-311+G(2d,p)
 ****
 36  38  39  40  41 0
 6-311+G(2d,p)
 ****
 1  2  3  4  5  16  17  18  19  20  21  22  23  24  25 0
 3-21G
 ****
 27  28  30  31  32  35  37  42  43  44  45  46  47 0
 3-21G
 ****
 48  49 0
 3-21G
 ****


