%nproc=1
%NoSave
%Mem=1900MB
#P OB98/GEN NMR

erre ene a

0 1
  C      260.299    -441.991    -175.076
  O      259.290    -441.790    -176.047
  H      260.989    -442.754    -175.446
  H      259.854    -442.344    -174.142
  H      260.860    -441.068    -174.901
  P      258.222    -440.618    -175.826
  C      255.889    -440.391    -174.736
  O      257.030    -441.218    -174.924
  C      254.691    -441.227    -174.274
  O      254.226    -442.033    -175.396
  C      255.004    -442.177    -173.119
  O      253.877    -442.239    -172.240
  C      255.197    -443.518    -173.803
  O      254.924    -444.621    -172.932
  C      254.230    -443.414    -174.983
  N      253.853    -448.086    -176.876
  C      253.242    -447.520    -175.779
  N      252.422    -448.314    -175.062
  N      253.425    -446.280    -175.409
  C      254.255    -445.585    -176.229
  C      254.915    -446.034    -177.349
  C      254.727    -447.417    -177.732
  O      255.255    -447.980    -178.690
  N      255.683    -445.035    -177.899
  C      255.477    -443.991    -177.122
  N      254.630    -444.276    -176.082
  O      257.773    -439.928    -177.077
  O      258.949    -439.599    -174.830
  H      255.260    -445.426    -173.384
  H      259.251    -438.804    -175.301
  H      253.692    -449.047    -177.110
  H      255.930    -443.011    -177.258
  H      253.206    -443.697    -174.709
  H      256.237    -443.609    -174.149
  H      252.218    -449.281    -175.301
  H      255.889    -441.866    -172.554
  H      251.935    -447.921    -174.263
  H      253.873    -440.544    -174.016
  H      255.655    -439.902    -175.687
  H      256.122    -439.624    -173.986
  P      254.093    -441.989    -170.669
  C      254.007    -443.401    -168.521
  O      254.212    -443.406    -169.925
  O      253.146    -441.023    -170.042
  O      255.602    -441.434    -170.607
  H      255.663    -440.772    -169.893
  H      254.111    -444.396    -168.142
  H      253.024    -443.038    -168.305
  H      254.731    -442.765    -168.057

 6  7  8  9  10  11  12  13  14  15  26  29  33  34 0
 6-311+G(2d,p)
 ****
 36  38  39  40  41 0
 6-311+G(2d,p)
 ****
 1  2  3  4  5  16  17  18  19  20  21  22  23  24  25 0
 3-21G
 ****
 27  28  30  31  32  35  37  42  43  44  45  46  47 0
 3-21G
 ****
 48  49 0
 3-21G
 ****


