%nproc=1
%NoSave
%Mem=1900MB
#P OB98/GEN NMR

erre ene a

0 1
  C      -19.998      12.799     -12.903
  O      -18.620      12.551     -12.680
  P      -17.570      13.219     -13.695
  C      -16.818      15.669     -14.113
  O      -17.860      14.797     -13.698
  C      -17.378      16.839     -14.925
  O      -17.924      16.327     -16.172
  C      -18.496      17.625     -14.223
  O      -18.349      18.994     -14.618
  C      -19.745      17.009     -14.827
  O      -20.915      17.789     -14.655
  C      -19.282      16.813     -16.268
  N      -23.325      16.355     -19.360
  C      -22.701      17.440     -18.849
  N      -21.623      17.484     -18.038
  C      -21.182      16.244     -17.769
  C      -21.725      15.046     -18.201
  C      -22.850      15.131     -19.036
  N      -23.490      14.021     -19.550
  N      -21.016      13.976     -17.697
  C      -20.061      14.518     -16.970
  N      -20.109      15.884     -17.001
  O      -18.101      12.745     -15.126
  O      -16.141      12.832     -13.470
  H      -21.638      17.432     -15.207
  H      -17.360      12.533     -15.725
  H      -23.124      18.401     -19.129
  H      -19.325      13.971     -16.397
  H      -19.261      17.758     -16.824
  H      -19.932      16.041     -14.347
  H      -18.451      17.562     -13.131
  H      -16.548      17.509     -15.182
  H      -16.115      15.119     -14.746
  H      -24.396      14.179     -19.967
  H      -23.258      13.124     -19.139
  H      -16.272      16.026     -13.234
  P      -18.930      20.144     -13.662
  C      -18.513      20.662     -11.180
  O      -18.510      19.668     -12.186
  O      -20.492      19.794     -13.680
  O      -18.600      21.543     -14.051
  H      -20.652      18.854     -13.482
  H      -18.307      20.185     -10.219
  H      -19.491      21.149     -11.131
  H      -17.734      21.401     -11.383
  H      -20.576      12.296     -12.157
  H      -20.273      12.437     -13.872
  H      -20.184      13.851     -12.849

 3  4  5  6  7  8  9  10  11  12  22  25  29  30  31  32 0
 6-311+G(2d,p)
 ****
 33  36  37 0
 6-311+G(2d,p)
 ****
 1  2  13  14  15  16  17  18  19  20  21  23  24  26 0
 3-21G
 ****
 27  28  34  35  38  39  40  41  42  43  44  45  46  47  48 0
 3-21G
 ****


