%nproc=1
%NoSave
%Mem=1900MB
#P OB98/GEN NMR

erre ene a

0 1
  C      255.432      83.957     439.791
  O      255.380      83.474     438.465
  P      255.506      81.906     438.163
  C      254.145      82.212     436.005
  O      255.331      81.678     436.589
  C      254.189      82.074     434.482
  O      254.661      80.761     434.099
  C      252.834      82.221     433.807
  O      252.386      83.561     433.799
  C      253.132      81.627     432.434
  O      253.780      82.591     431.593
  C      254.099      80.483     432.791
  N      253.454      79.177     432.757
  C      254.195      78.146     432.172
  O      255.285      78.376     431.651
  N      253.671      76.875     432.186
  C      252.467      76.680     432.627
  N      252.020      75.394     432.672
  C      251.591      77.770     433.105
  C      252.155      78.981     433.163
  O      254.657      81.024     439.024
  O      257.057      81.591     438.393
  H      257.139      80.818     438.986
  H      254.273      82.080     430.919
  H      250.573      77.567     433.402
  H      251.596      79.840     433.520
  H      254.948      80.476     432.099
  H      252.220      81.307     431.914
  H      252.093      81.590     434.323
  H      254.895      82.820     434.093
  H      252.655      74.670     432.354
  H      254.064      83.267     436.274
  H      251.263      75.101     433.283
  H      253.276      81.683     436.415
  P      250.827      83.810     434.102
  C      251.421      86.161     433.182
  O      250.419      85.187     433.392
  O      250.817      84.167     435.665
  O      249.943      82.648     433.804
  H      250.012      83.793     436.080
  H      251.078      86.853     432.409
  H      252.359      85.700     432.860
  H      251.588      86.716     434.113
  H      255.331      85.022     439.787
  H      256.370      83.689     440.232
  H      254.635      83.525     440.359

 3  4  5  6  7  8  9  10  11  12  13  24  27  28  29  30  32 0
 6-311+G(2d,p)
 ****
 34  35 0
 6-311+G(2d,p)
 ****
 1  2  14  15  16  17  18  19  20  21  22  23  25  26 0
 3-21G
 ****
 31  33  36  37  38  39  40  41  42  43  44  45  46 0
 3-21G
 ****


