%nproc=1
%NoSave
%Mem=1900MB
#P OB98/GEN NMR

erre ene a

0 1
  C     -618.178     291.000     110.739
  O     -618.086     289.921     109.834
  H     -619.148     291.488     110.610
  H     -617.388     291.726     110.538
  H     -618.099     290.638     111.769
  P     -616.730     289.067     109.859
  C     -617.820     287.448     111.567
  O     -616.714     288.288     111.267
  C     -617.755     286.979     113.022
  O     -616.546     286.187     113.207
  C     -617.717     288.126     114.041
  O     -618.483     287.745     115.189
  C     -616.250     288.191     114.429
  O     -616.060     288.797     115.703
  C     -615.872     286.714     114.363
  N     -611.908     284.686     116.706
  C     -613.251     284.666     117.033
  N     -613.594     284.010     118.161
  N     -614.179     285.244     116.317
  C     -613.698     285.847     115.202
  C     -612.397     285.946     114.774
  C     -611.375     285.319     115.589
  O     -610.170     285.324     115.363
  N     -612.314     286.669     113.609
  C     -613.564     287.004     113.337
  N     -614.438     286.524     114.273
  O     -615.593     290.179     110.044
  O     -616.488     288.208     108.662
  H     -616.724     288.419     116.317
  H     -614.758     289.896     109.620
  H     -611.235     284.236     117.298
  H     -613.884     287.588     112.484
  H     -616.215     286.156     115.246
  H     -615.690     288.773     113.687
  H     -612.939     283.511     118.745
  H     -618.090     289.072     113.646
  H     -614.573     283.970     118.415
  H     -618.600     286.307     113.211
  H     -617.796     286.579     110.902
  H     -618.749     288.002     111.399
  P     -619.915     288.443     115.389
  C     -621.325     286.277     115.637
  O     -621.055     287.436     114.868
  O     -619.904     289.601     114.285
  O     -620.127     288.999     116.757
  H     -619.816     290.469     114.721
  H     -622.101     285.710     115.167
  H     -621.638     286.565     116.619
  H     -620.439     285.680     115.706

 6  7  8  9  10  11  12  13  14  15  26  29  33  34 0
 6-311+G(2d,p)
 ****
 36  38  39  40  41 0
 6-311+G(2d,p)
 ****
 1  2  3  4  5  16  17  18  19  20  21  22  23  24  25 0
 3-21G
 ****
 27  28  30  31  32  35  37  42  43  44  45  46  47 0
 3-21G
 ****
 48  49 0
 3-21G
 ****


