%nproc=1
%NoSave
%Mem=1900MB
#P OB98/GEN NMR

erre ene a

0 1
  C     -419.950     122.490    -115.867
  O     -420.305     121.178    -116.259
  P     -420.656     120.055    -115.173
  C     -423.185     120.475    -115.185
  O     -421.993     120.505    -114.413
  C     -424.146     119.388    -114.697
  O     -424.332     119.528    -113.257
  C     -425.532     119.432    -115.354
  O     -425.950     118.073    -115.542
  C     -426.391     120.112    -114.307
  O     -427.772     119.825    -114.468
  C     -425.755     119.573    -113.019
  N     -426.070     120.393    -111.859
  C     -427.162     119.993    -111.079
  O     -427.884     119.068    -111.456
  N     -427.409     120.659    -109.903
  C     -426.748     121.742    -109.634
  N     -426.972     122.334    -108.429
  C     -425.757     122.334    -110.558
  C     -425.441     121.590    -111.619
  O     -419.528     119.670    -114.275
  O     -421.142     118.803    -116.051
  H     -420.629     118.011    -115.789
  H     -427.884     118.856    -114.584
  H     -425.325     123.298    -110.350
  H     -424.707     121.925    -112.345
  H     -426.082     118.543    -112.829
  H     -426.260     121.203    -114.374
  H     -425.523     119.947    -116.322
  H     -423.673     118.416    -114.864
  H     -427.628     121.879    -107.800
  H     -422.913     120.263    -116.224
  H     -426.299     122.971    -108.001
  H     -423.669     121.456    -115.159
  P     -427.021     117.760    -116.702
  C     -425.355     116.542    -118.276
  O     -426.225     117.640    -118.089
  O     -427.750     119.185    -116.856
  O     -428.033     116.703    -116.407
  H     -428.649     119.045    -117.212
  H     -424.849     116.659    -119.241
  H     -425.922     115.606    -118.289
  H     -424.597     116.508    -117.486
  H     -419.755     123.082    -116.737
  H     -419.072     122.455    -115.256
  H     -420.754     122.926    -115.312

 3  4  5  6  7  8  9  10  11  12  13  24  27  28  29  30  32 0
 6-311+G(2d,p)
 ****
 34  35 0
 6-311+G(2d,p)
 ****
 1  2  14  15  16  17  18  19  20  21  22  23  25  26 0
 3-21G
 ****
 31  33  36  37  38  39  40  41  42  43  44  45  46 0
 3-21G
 ****


