%nproc=1
%NoSave
%Mem=1900MB
#P OB98/GEN NMR

erre ene a

0 1
  C     1113.841    -893.190       3.030
  O     1112.994    -893.020       1.917
  H     1113.433    -892.610       3.864
  H     1114.840    -892.820       2.811
  H     1113.889    -894.240       3.316
  P     1113.403    -893.710       0.524
  C     1111.147    -894.790      -0.122
  O     1112.478    -895.010       0.346
  C     1110.142    -895.200       0.969
  O     1110.352    -894.350       2.126
  C     1108.685    -895.040       0.490
  O     1107.885    -896.210       0.675
  C     1108.216    -893.780       1.234
  O     1106.833    -893.700       1.474
  C     1109.090    -893.790       2.515
  N     1109.267    -892.480       3.108
  C     1108.289    -892.030       3.996
  O     1107.282    -892.680       4.309
  N     1108.491    -890.790       4.529
  C     1109.538    -889.950       4.264
  O     1109.660    -888.850       4.775
  C     1110.545    -890.480       3.329
  C     1110.353    -891.690       2.778
  O     1114.865    -893.950       0.333
  O     1112.823    -892.710      -0.586
  H     1106.383    -893.790       0.611
  H     1113.563    -892.170      -0.950
  H     1107.783    -890.450       5.171
  H     1111.394    -889.830       3.081
  H     1111.072    -892.110       2.078
  H     1108.639    -894.450       3.272
  H     1108.498    -892.910       0.636
  H     1108.630    -894.840      -0.582
  H     1110.342    -896.240       1.268
  H     1111.006    -895.390      -1.015
  H     1111.001    -893.730      -0.357
  P     1108.179    -897.610      -0.057
  C     1107.708    -899.350       1.827
  O     1108.656    -898.660       1.060
  O     1108.994    -897.530      -1.321
  O     1106.702    -898.130      -0.458
  H     1106.818    -898.630      -1.304
  H     1108.209    -900.000       2.513
  H     1107.080    -899.928       1.182
  H     1107.111    -898.648       2.372

 6  7  8  9  10  11  12  13  14  15  16  26  31  32  33  34  35 0
 6-311+G(2d,p)
 ****
 36  37 0
 6-311+G(2d,p)
 ****
 1  2  3  4  5  17  18  19  20  21  22  23  24  25 0
 3-21G
 ****
 27  28  29  30  38  39  40  41  42  43  44  45 0
 3-21G
 ****


