%nproc=1
%NoSave
%Mem=1900MB
#P OB98/GEN NMR

erre ene a

0 1
  C      122.934    -139.346     351.650
  O      123.545    -138.676     352.762
  P      125.042    -138.098     352.731
  C      125.856    -135.711     353.315
  O      125.117    -136.852     353.739
  C      125.652    -134.539     354.282
  O      124.309    -134.014     354.155
  C      125.779    -134.885     355.759
  O      127.122    -135.104     356.149
  C      125.125    -133.666     356.406
  O      126.054    -132.585     356.544
  C      124.034    -133.295     355.381
  N      122.688    -133.569     355.858
  C      121.942    -132.470     356.296
  O      122.452    -131.350     356.344
  N      120.640    -132.674     356.683
  C      120.163    -133.881     356.732
  N      118.863    -134.019     357.105
  C      120.962    -135.079     356.408
  C      122.201    -134.851     355.980
  O      125.546    -137.791     351.358
  O      125.943    -139.218     353.437
  H      126.857    -139.159     353.104
  H      126.121    -132.155     355.667
  H      120.536    -136.066     356.501
  H      122.853    -135.677     355.707
  H      124.111    -132.234     355.117
  H      124.737    -133.891     357.406
  H      125.177    -135.778     355.974
  H      126.364    -133.747     354.011
  H      118.342    -133.175     357.311
  H      125.497    -135.416     352.322
  H      118.388    -134.910     357.155
  H      126.916    -135.976     353.240
  P      127.682    -136.599     356.020
  C      130.085    -137.574     356.183
  O      129.147    -136.630     356.668
  O      127.958    -136.763     354.449
  O      126.753    -137.655     356.519
  H      127.708    -137.663     354.164
  H      131.090    -137.178     356.339
  H      129.941    -137.776     355.121
  H      129.981    -138.505     356.750
  H      121.938    -139.637     351.912
  H      123.505    -140.215     351.399
  H      122.903    -138.685     350.809

 3  4  5  6  7  8  9  10  11  12  13  24  27  28  29  30  32 0
 6-311+G(2d,p)
 ****
 34  35 0
 6-311+G(2d,p)
 ****
 1  2  14  15  16  17  18  19  20  21  22  23  25  26 0
 3-21G
 ****
 31  33  36  37  38  39  40  41  42  43  44  45  46 0
 3-21G
 ****


