%nproc=1
%NoSave
%Mem=1900MB
#P OB98/GEN NMR

erre ene a

0 1
  C      126.507     228.652      79.045
  O      125.149     228.380      78.744
  H      127.114     228.368      78.181
  H      126.823     228.064      79.909
  H      126.655     229.717      79.242
  P      124.021     228.845      79.783
  C      122.643     226.739      79.215
  O      122.645     228.162      79.320
  C      121.345     226.277      78.546
  O      120.211     226.617      79.373
  C      121.081     226.936      77.191
  O      121.889     226.362      76.183
  C      119.590     226.683      77.031
  O      119.344     225.348      76.561
  C      119.086     226.859      78.487
  N      118.496     228.175      78.724
  C      117.281     228.439      78.101
  O      116.723     227.627      77.355
  N      116.739     229.666      78.343
  C      117.331     230.683      79.038
  O      116.841     231.801      79.146
  C      118.627     230.367      79.646
  C      119.141     229.143      79.473
  O      123.941     230.315      80.035
  O      124.387     228.043      81.122
  H      118.387     225.294      76.376
  H      124.796     228.651      81.764
  H      115.855     229.877      77.890
  H      119.123     231.143      80.218
  H      120.101     228.898      79.911
  H      118.340     226.092      78.721
  H      119.126     227.366      76.321
  H      121.251     228.020      77.255
  H      121.373     225.183      78.448
  H      122.701     226.311      80.217
  H      123.511     226.419      78.629
  P      122.826     227.303      75.282
  C      122.930     226.017      73.043
  O      123.618     226.362      74.252
  O      123.667     228.277      76.033
  O      121.787     228.075      74.335
  H      121.859     229.040      74.487
  H      123.556     225.391      72.442
  H      122.692     226.908      72.501
  H      122.028     225.494      73.283

 6  7  8  9  10  11  12  13  14  15  16  26  31  32  33  34  35 0
 6-311+G(2d,p)
 ****
 36  37 0
 6-311+G(2d,p)
 ****
 1  2  3  4  5  17  18  19  20  21  22  23  24  25 0
 3-21G
 ****
 27  28  29  30  38  39  40  41  42  43  44  45 0
 3-21G
 ****


