%nproc=1
%NoSave
%Mem=1900MB
#P OB98/GEN NMR

erre ene a

0 1
  C       -7.847      23.449       0.828
  O       -9.030      23.116       1.535
  P       -9.171      21.699       2.272
  C       -9.792      22.420       4.660
  O       -8.761      21.939       3.805
  C       -9.508      22.042       6.112
  O      -10.502      22.664       6.959
  C       -9.562      20.540       6.369
  O       -8.571      20.202       7.343
  C      -10.932      20.314       6.985
  O      -10.942      19.139       7.813
  C      -11.149      21.634       7.730
  N      -15.243      21.518      10.824
  C      -13.965      21.125      11.012
  N      -12.935      21.161      10.138
  C      -13.319      21.722       8.981
  C      -14.586      22.174       8.645
  C      -15.581      22.054       9.629
  N      -16.882      22.467       9.439
  N      -14.604      22.659       7.351
  C      -13.368      22.520       6.926
  N      -12.552      21.968       7.877
  O       -8.460      20.571       1.609
  O      -10.745      21.444       2.354
  H      -11.877      18.960       8.046
  H      -10.944      20.499       2.207
  H      -13.738      20.723      11.995
  H      -13.016      22.790       5.942
  H      -10.690      21.616       8.726
  H      -11.673      20.172       6.190
  H       -9.412      19.947       5.461
  H       -8.531      22.451       6.396
  H      -10.737      21.966       4.349
  H      -17.493      22.454      10.240
  H      -17.091      23.021       8.620
  H       -9.876      23.506       4.552
  P       -7.750      18.844       7.067
  C       -5.924      19.808       5.482
  O       -7.103      19.047       5.617
  O       -8.591      17.628       7.275
  O       -6.534      19.002       8.097
  H       -6.361      19.945       8.308
  H       -5.663      19.864       4.422
  H       -5.101      19.327       6.016
  H       -6.076      20.821       5.864
  H       -7.946      24.429       0.409
  H       -7.689      22.740       0.043
  H       -7.013      23.430       1.499

 3  4  5  6  7  8  9  10  11  12  22  25  29  30  31  32 0
 6-311+G(2d,p)
 ****
 33  36  37 0
 6-311+G(2d,p)
 ****
 1  2  13  14  15  16  17  18  19  20  21  23  24  26 0
 3-21G
 ****
 27  28  34  35  38  39  40  41  42  43  44  45  46  47  48 0
 3-21G
 ****


