%nproc=1
%NoSave
%Mem=1900MB
#P OB98/GEN NMR

erre ene a

0 1
  C     -569.004     802.881     295.238
  O     -567.644     802.530     295.176
  P     -566.718     802.815     293.912
  C     -565.511     804.835     295.071
  O     -566.248     804.352     293.950
  C     -564.130     805.360     294.637
  O     -564.331     806.404     293.643
  C     -563.382     805.995     295.823
  O     -561.996     805.680     295.859
  C     -563.754     807.477     295.708
  O     -562.854     808.342     296.385
  C     -563.854     807.651     294.193
  N     -564.443     812.666     293.588
  C     -563.283     811.957     293.838
  N     -562.196     812.671     294.157
  N     -563.240     810.647     293.820
  C     -564.430     810.047     293.624
  C     -565.636     810.661     293.348
  C     -565.683     812.092     293.335
  O     -566.709     812.774     293.225
  N     -566.654     809.737     293.254
  C     -566.068     808.579     293.494
  N     -564.726     808.720     293.755
  O     -567.171     802.253     292.598
  O     -565.356     802.044     294.326
  H     -561.957     808.143     296.041
  H     -564.966     801.686     293.508
  H     -564.434     813.681     293.691
  H     -566.570     807.619     293.519
  H     -562.879     807.856     293.755
  H     -564.736     807.594     296.180
  H     -562.253     813.663     294.315
  H     -563.752     805.603     296.772
  H     -561.413     812.191     294.581
  H     -563.564     804.548     294.159
  H     -565.392     803.979     295.747
  H     -566.072     805.601     295.600
  P     -560.966     805.806     297.073
  C     -560.739     803.258     297.359
  O     -561.098     804.476     297.977
  O     -561.573     806.939     298.019
  O     -559.570     806.152     296.694
  H     -560.857     807.494     298.378
  H     -561.138     802.429     297.961
  H     -559.662     803.173     297.291
  H     -561.174     803.199     296.351
  H     -569.406     802.586     296.185
  H     -569.537     802.384     294.454
  H     -569.105     803.940     295.122

 3  4  5  6  7  8  9  10  11  12  23  26  30  31 0
 6-311+G(2d,p)
 ****
 33  35  36  37  38 0
 6-311+G(2d,p)
 ****
 1  2  13  14  15  16  17  18  19  20  21  22  24  25 0
 3-21G
 ****
 27  28  29  32  34  39  40  41  42  43  44  45  46  47  48  49 0
 3-21G
 ****


