%nproc=1
%NoSave
%Mem=1900MB
#P OB98/GEN NMR

erre ene a

0 1
  C      792.591    -334.693      83.955
  O      791.862    -335.329      82.894
  P      792.555    -335.709      81.497
  C      791.040    -334.303      79.944
  O      791.455    -335.618      80.326
  C      789.579    -334.279      79.499
  O      788.694    -334.300      80.644
  C      789.183    -333.055      78.681
  O      789.625    -333.189      77.336
  C      787.670    -333.042      78.872
  O      787.045    -333.974      77.977
  C      787.529    -333.510      80.320
  N      786.039    -332.275      85.060
  C      786.123    -333.467      84.424
  N      786.530    -333.711      83.152
  C      786.893    -332.568      82.544
  C      786.861    -331.283      83.061
  C      786.403    -331.146      84.393
  N      786.311    -329.939      85.041
  N      787.279    -330.360      82.131
  C      787.582    -331.079      81.056
  N      787.369    -332.423      81.265
  O      793.321    -336.994      81.518
  O      793.530    -334.478      81.177
  H      787.252    -333.690      77.060
  H      794.288    -334.785      80.638
  H      785.828    -334.331      85.000
  H      787.965    -330.686      80.140
  H      786.660    -334.176      80.443
  H      787.229    -332.052      78.674
  H      789.614    -332.150      79.125
  H      789.383    -335.196      78.935
  H      791.679    -333.961      79.126
  H      785.939    -329.922      85.972
  H      786.529    -329.101      84.530
  H      791.189    -333.640      80.812
  P      789.977    -331.892      76.468
  C      788.415    -332.767      74.620
  O      789.705    -332.264      74.935
  O      791.293    -331.261      76.750
  O      788.771    -330.878      76.801
  H      789.084    -329.963      76.720
  H      788.367    -333.834      74.888
  H      788.243    -332.665      73.542
  H      787.648    -332.223      75.162
  H      791.940    -334.532      84.789
  H      792.971    -333.753      83.613
  H      793.405    -335.320      84.254

 3  4  5  6  7  8  9  10  11  12  22  25  29  30  31  32 0
 6-311+G(2d,p)
 ****
 33  36  37 0
 6-311+G(2d,p)
 ****
 1  2  13  14  15  16  17  18  19  20  21  23  24  26 0
 3-21G
 ****
 27  28  34  35  38  39  40  41  42  43  44  45  46  47  48 0
 3-21G
 ****


