%nproc=1
%NoSave
%Mem=1900MB
#P OB98/GEN NMR

erre ene a

0 1
  C       48.362    -897.034     823.387
  O       48.997    -896.964     822.113
  H       48.456    -898.074     823.750
  H       47.305    -896.784     823.292
  H       48.851    -896.374     824.096
  P       49.099    -895.544     821.378
  C       46.979    -895.964     819.966
  O       47.598    -895.134     820.941
  C       45.498    -895.644     819.857
  O       45.350    -894.234     819.531
  C       44.765    -896.464     818.791
  O       43.461    -896.784     819.257
  C       44.650    -895.514     817.609
  O       43.547    -895.784     816.763
  C       44.529    -894.154     818.340
  N       43.124    -891.014     814.637
  C       42.396    -891.974     815.330
  N       41.116    -892.154     814.941
  N       42.906    -892.694     816.288
  C       44.185    -892.424     816.579
  C       45.028    -891.494     815.976
  C       44.465    -890.694     814.897
  O       45.041    -889.834     814.232
  N       46.272    -891.524     816.519
  C       46.221    -892.464     817.439
  N       44.979    -893.044     817.506
  O       50.111    -895.454     820.282
  O       49.424    -894.524     822.577
  H       43.630    -896.714     816.474
  H       50.377    -894.304     822.590
  H       42.709    -890.484     813.902
  H       47.032    -892.764     818.069
  H       43.501    -893.924     818.629
  H       45.576    -895.524     817.005
  H       40.674    -891.594     814.212
  H       45.317    -897.384     818.496
  H       40.547    -892.834     815.453
  H       45.045    -895.804     820.845
  H       47.116    -897.014     820.268
  H       47.493    -895.814     818.991
  P       43.190    -898.284     819.801
  C       42.812    -899.264     817.466
  O       43.586    -899.314     818.662
  O       41.842    -898.494     820.455
  O       44.371    -898.464     820.902
  H       44.064    -899.064     821.604
  H       43.171    -900.000     816.778
  H       42.898    -898.292     817.026
  H       41.786    -899.461     817.697

 6  7  8  9  10  11  12  13  14  15  26  29  33  34 0
 6-311+G(2d,p)
 ****
 36  38  39  40  41 0
 6-311+G(2d,p)
 ****
 1  2  3  4  5  16  17  18  19  20  21  22  23  24  25 0
 3-21G
 ****
 27  28  30  31  32  35  37  42  43  44  45  46  47 0
 3-21G
 ****
 48  49 0
 3-21G
 ****


