%nproc=1
%NoSave
%Mem=1900MB
#P OB98/GEN NMR

erre ene a

0 1
  C      301.514    -461.665     -22.835
  O      301.042    -462.064     -21.563
  H      302.527    -461.270     -22.724
  H      300.873    -460.878     -23.241
  H      301.539    -462.518     -23.520
  P      299.634    -462.839     -21.529
  C      298.184    -460.660     -21.763
  O      298.601    -461.896     -22.314
  C      296.760    -460.322     -22.209
  O      296.765    -460.104     -23.644
  C      295.740    -461.424     -21.906
  O      294.496    -460.809     -21.574
  C      295.607    -462.148     -23.239
  O      294.368    -462.848     -23.343
  C      295.785    -460.989     -24.230
  N      296.200    -461.449     -25.553
  C      295.742    -460.709     -26.646
  O      295.008    -459.735     -26.475
  N      296.078    -461.114     -27.915
  C      296.763    -462.201     -28.079
  N      297.048    -462.563     -29.359
  C      297.238    -463.037     -26.959
  C      296.930    -462.599     -25.736
  O      299.209    -462.673     -19.994
  O      299.696    -464.251     -22.002
  H      294.395    -463.416     -24.143
  H      299.345    -461.774     -19.650
  H      297.798    -463.943     -27.144
  H      297.242    -463.148     -24.851
  H      294.850    -460.424     -24.338
  H      296.415    -462.879     -23.354
  H      296.058    -462.082     -21.096
  H      296.465    -459.375     -21.743
  H      296.686    -461.975     -30.098
  H      298.861    -459.861     -22.070
  H      297.526    -463.416     -29.608
  H      298.231    -460.746     -20.672
  P      294.075    -460.665     -20.037
  C      291.649    -461.536     -20.237
  O      292.945    -461.745     -19.689
  O      293.791    -459.273     -19.573
  O      295.360    -461.251     -19.267
  H      295.527    -460.681     -18.488
  H      290.999    -462.327     -19.926
  H      291.711    -461.524     -21.305
  H      291.263    -460.600     -19.892

 6  7  8  9  10  11  12  13  14  15  16  26  30  31  32  33  35 0
 6-311+G(2d,p)
 ****
 37  38 0
 6-311+G(2d,p)
 ****
 1  2  3  4  5  17  18  19  20  21  22  23  24  25 0
 3-21G
 ****
 27  28  29  34  36  39  40  41  42  43  44  45  46 0
 3-21G
 ****


