%nproc=1
%NoSave
%Mem=1900MB
#P OB98/GEN NMR

erre ene a

0 1
  C       55.249    -177.316    -151.951
  O       54.677    -176.823    -150.752
  P       55.209    -177.413    -149.362
  C       55.055    -179.674    -148.089
  O       54.608    -178.893    -149.190
  C       54.924    -181.167    -148.389
  O       55.802    -181.521    -149.489
  C       55.291    -182.066    -147.205
  O       54.468    -183.243    -147.229
  C       56.711    -182.500    -147.515
  O       57.043    -183.719    -146.854
  C       56.648    -182.599    -149.040
  N       60.252    -185.202    -151.448
  C       58.935    -185.542    -151.211
  N       58.554    -186.779    -151.596
  N       58.067    -184.738    -150.656
  C       58.591    -183.534    -150.318
  C       59.875    -183.076    -150.517
  C       60.828    -183.978    -151.122
  O       62.016    -183.752    -151.332
  N       60.021    -181.786    -150.074
  C       58.845    -181.477    -149.567
  N       57.954    -182.515    -149.662
  O       54.401    -176.554    -148.276
  O       56.679    -177.289    -149.152
  H       57.063    -183.524    -145.898
  H       54.996    -175.896    -147.868
  H       60.886    -185.859    -151.869
  H       58.592    -180.530    -149.104
  H       56.185    -183.539    -149.362
  H       57.418    -181.728    -147.193
  H       59.191    -187.469    -151.967
  H       55.202    -181.586    -146.223
  H       57.607    -187.070    -151.394
  H       53.897    -181.367    -148.723
  H       54.455    -179.430    -147.212
  H       56.099    -179.425    -147.865
  P       53.943    -183.764    -145.803
  C       55.120    -184.545    -143.614
  O       55.256    -184.079    -144.942
  O       53.350    -185.214    -146.135
  O       52.938    -182.871    -145.156
  H       52.667    -185.457    -145.482
  H       55.543    -185.552    -143.550
  H       54.076    -184.579    -143.291
  H       55.674    -183.883    -142.947
  H       54.794    -176.830    -152.789
  H       55.084    -178.371    -152.018
  H       56.301    -177.119    -151.952

 3  4  5  6  7  8  9  10  11  12  23  26  30  31 0
 6-311+G(2d,p)
 ****
 33  35  36  37  38 0
 6-311+G(2d,p)
 ****
 1  2  13  14  15  16  17  18  19  20  21  22  24  25 0
 3-21G
 ****
 27  28  29  32  34  39  40  41  42  43  44  45  46  47  48  49 0
 3-21G
 ****


