%nproc=1
%NoSave
%Mem=1900MB
#P OB98/GEN NMR

erre ene a

0 1
  C      363.945       2.019     144.088
  O      364.209       0.666     143.757
  H      362.973       2.072     144.583
  H      363.913       2.629     143.179
  H      364.717       2.395     144.767
  P      365.551       0.382     142.908
  C      366.181      -1.368     144.740
  O      365.969      -1.108     143.363
  C      366.764      -2.766     144.923
  O      365.746      -3.774     144.690
  C      367.900      -3.108     143.960
  O      369.143      -2.536     144.320
  C      367.919      -4.626     144.107
  O      368.527      -4.976     145.364
  C      366.409      -4.940     144.111
  N      365.878      -5.214     142.764
  C      365.282      -6.464     142.571
  O      365.217      -7.286     143.484
  N      364.803      -6.783     141.316
  C      364.883      -5.916     140.351
  N      364.390      -6.292     139.133
  C      365.493      -4.581     140.518
  C      365.959      -4.301     141.726
  O      366.643       1.290     143.635
  O      365.447       0.591     141.433
  H      368.441      -5.945     145.460
  H      367.548       1.076     143.286
  H      365.553      -3.895     139.683
  H      366.419      -3.334     141.932
  H      366.179      -5.804     144.757
  H      368.492      -5.130     143.328
  H      367.644      -2.863     142.921
  H      367.086      -2.869     145.970
  H      364.041      -7.234     139.038
  H      365.215      -1.289     145.265
  H      364.543      -5.747     138.292
  H      366.876      -0.630     145.159
  P      370.042      -1.904     143.143
  C      371.051       0.229     144.254
  O      371.255      -1.121     143.847
  O      369.119      -0.725     142.580
  O      370.435      -2.872     142.081
  H      369.242      -0.618     141.616
  H      371.947       0.606     144.702
  H      370.252       0.270     144.964
  H      370.801       0.825     143.401

 6  7  8  9  10  11  12  13  14  15  16  26  30  31  32  33  35 0
 6-311+G(2d,p)
 ****
 37  38 0
 6-311+G(2d,p)
 ****
 1  2  3  4  5  17  18  19  20  21  22  23  24  25 0
 3-21G
 ****
 27  28  29  34  36  39  40  41  42  43  44  45  46 0
 3-21G
 ****


