%nproc=1
%NoSave
%Mem=1900MB
#P OB98/GEN NMR

erre ene a

0 1
  C     -630.231    -878.103     172.850
  O     -630.578    -876.737     173.036
  P     -631.411    -876.012     171.875
  C     -629.346    -874.479     171.485
  O     -630.326    -875.352     170.897
  C     -628.567    -873.754     170.394
  O     -627.854    -874.708     169.572
  C     -629.406    -872.950     169.448
  O     -629.728    -871.655     169.978
  C     -628.451    -872.798     168.261
  O     -627.486    -871.774     168.552
  C     -627.769    -874.165     168.219
  N     -629.000    -874.925     163.317
  C     -628.449    -873.853     163.944
  N     -628.168    -873.739     165.268
  C     -628.534    -874.835     165.947
  C     -629.138    -875.972     165.443
  C     -629.359    -876.003     164.049
  N     -629.893    -877.105     163.394
  N     -629.366    -876.896     166.427
  C     -628.906    -876.319     167.545
  N     -628.380    -875.081     167.291
  O     -632.067    -874.753     172.625
  O     -632.454    -876.867     171.211
  H     -627.000    -871.591     167.718
  H     -632.862    -874.468     172.159
  H     -628.200    -873.014     163.333
  H     -628.943    -876.768     168.526
  H     -626.694    -874.076     167.973
  H     -628.965    -872.511     167.319
  H     -630.300    -873.482     169.117
  H     -627.789    -873.129     170.883
  H     -628.653    -875.074     172.092
  H     -629.845    -877.104     162.385
  H     -629.976    -877.981     163.902
  H     -629.851    -873.756     172.127
  P     -630.634    -870.713     169.059
  C     -628.681    -869.006     168.985
  O     -629.618    -869.780     168.251
  O     -631.302    -869.722     170.123
  O     -631.664    -871.425     168.236
  H     -632.164    -869.357     169.785
  H     -627.870    -868.695     168.313
  H     -628.238    -869.586     169.816
  H     -629.157    -868.106     169.391
  H     -629.681    -878.450     173.700
  H     -629.629    -878.202     171.971
  H     -631.122    -878.685     172.740

 3  4  5  6  7  8  9  10  11  12  22  25  29  30  31  32 0
 6-311+G(2d,p)
 ****
 33  36  37 0
 6-311+G(2d,p)
 ****
 1  2  13  14  15  16  17  18  19  20  21  23  24  26 0
 3-21G
 ****
 27  28  34  35  38  39  40  41  42  43  44  45  46  47  48 0
 3-21G
 ****


