%nproc=1
%NoSave
%Mem=1900MB
#P OB98/GEN NMR

erre ene a

0 1
  C      585.212    -210.629    -213.504
  O      584.637    -210.882    -212.224
  P      583.060    -210.623    -212.027
  C      580.864    -211.168    -213.273
  O      582.272    -211.394    -213.191
  C      580.121    -212.477    -213.583
  O      580.606    -213.010    -214.845
  C      580.332    -213.598    -212.553
  O      579.449    -213.670    -211.439
  C      580.059    -214.840    -213.405
  O      578.640    -215.077    -213.473
  C      580.584    -214.455    -214.786
  N      583.360    -217.287    -218.021
  C      582.050    -216.939    -218.018
  N      581.394    -216.176    -217.116
  C      582.221    -215.758    -216.148
  C      583.572    -216.034    -216.021
  C      584.147    -216.842    -217.017
  N      585.474    -217.210    -217.016
  N      584.089    -215.435    -214.895
  C      583.058    -214.824    -214.337
  N      581.912    -214.975    -215.066
  O      582.661    -209.201    -211.817
  O      582.726    -211.510    -210.743
  H      578.529    -215.939    -213.922
  H      582.068    -211.045    -210.197
  H      581.460    -217.310    -218.845
  H      583.101    -214.263    -213.406
  H      579.932    -214.802    -215.589
  H      580.511    -215.740    -212.981
  H      581.374    -213.611    -212.199
  H      579.045    -212.266    -213.687
  H      580.665    -210.438    -214.057
  H      585.795    -217.828    -217.742
  H      586.064    -216.935    -216.239
  H      580.554    -210.717    -212.333
  P      579.940    -213.285    -209.962
  C      580.626    -211.026    -208.829
  O      580.206    -211.703    -209.991
  O      581.081    -214.098    -209.435
  O      578.598    -213.410    -209.104
  H      577.926    -212.729    -209.313
  H      580.958    -210.020    -209.109
  H      581.468    -211.554    -208.359
  H      579.797    -210.944    -208.124
  H      586.259    -210.847    -213.474
  H      585.069    -209.600    -213.762
  H      584.739    -211.249    -214.236

 3  4  5  6  7  8  9  10  11  12  22  25  29  30  31  32 0
 6-311+G(2d,p)
 ****
 33  36  37 0
 6-311+G(2d,p)
 ****
 1  2  13  14  15  16  17  18  19  20  21  23  24  26 0
 3-21G
 ****
 27  28  34  35  38  39  40  41  42  43  44  45  46  47  48 0
 3-21G
 ****


