%nproc=1
%NoSave
%Mem=1900MB
#P OB98/GEN NMR

erre ene a

0 1
  C     -219.471       0.472     172.457
  O     -220.426      -0.301     171.742
  P     -221.803      -0.655     172.494
  C     -221.723      -3.129     171.716
  O     -221.724      -2.226     172.816
  C     -220.777      -4.293     171.982
  O     -219.468      -3.792     172.314
  C     -221.178      -5.182     173.148
  O     -222.177      -6.121     172.782
  C     -219.859      -5.878     173.457
  O     -219.670      -6.982     172.553
  C     -218.831      -4.770     173.174
  N     -215.344      -4.773     176.846
  C     -215.500      -5.627     175.771
  N     -214.576      -6.606     175.644
  N     -216.470      -5.532     174.903
  C     -217.293      -4.483     175.134
  C     -217.244      -3.569     176.163
  C     -216.194      -3.716     177.147
  O     -216.045      -3.030     178.155
  N     -218.246      -2.637     176.053
  C     -218.875      -2.963     174.941
  N     -218.353      -4.095     174.364
  O     -222.886      -0.573     171.320
  O     -222.149       0.237     173.637
  H     -220.446      -7.566     172.650
  H     -223.767      -0.377     171.696
  H     -214.568      -4.880     177.473
  H     -219.704      -2.414     174.522
  H     -217.966      -5.163     172.626
  H     -219.819      -6.285     174.472
  H     -213.737      -6.648     176.200
  H     -221.489      -4.583     174.013
  H     -214.652      -7.218     174.843
  H     -220.690      -4.883     171.060
  H     -221.393      -2.602     170.815
  H     -222.743      -3.491     171.556
  P     -223.555      -6.065     173.606
  C     -222.678      -7.713     175.414
  O     -223.155      -6.414     175.117
  O     -224.338      -7.366     173.102
  O     -224.342      -4.815     173.402
  H     -225.301      -7.238     173.198
  H     -222.062      -8.109     174.601
  H     -223.525      -8.379     175.588
  H     -222.068      -7.667     176.320
  H     -218.610       0.632     171.843
  H     -219.183      -0.050     173.346
  H     -219.901       1.416     172.721

 3  4  5  6  7  8  9  10  11  12  23  26  30  31  33  0
 6-311+G(2d,p)
 ****
 35  36  37  38 0
 6-311+G(2d,p)
 ****
 1  2  13  14  15  16  17  18  19  20  21  22  24  25  27  28  29 0
 3-21G
 ****
 32  34  39  40  41  42  43  44  45  46  47  48  49 0
 3-21G
 ****


