%nproc=1
%NoSave
%Mem=1900MB
#P OB98/GEN NMR

erre ene a

0 1
  C      307.287    -360.766    -227.392
  O      308.350    -361.195    -226.568
  H      306.872    -359.849    -226.978
  H      306.507    -361.529    -227.408
  H      307.637    -360.567    -228.411
  P      309.319    -362.333    -227.164
  C      308.511    -364.432    -225.860
  O      309.506    -363.423    -226.002
  C      308.219    -364.691    -224.390
  O      309.363    -365.295    -223.746
  C      307.890    -363.437    -223.581
  O      306.522    -363.071    -223.716
  C      308.194    -363.918    -222.172
  O      307.112    -364.751    -221.705
  C      309.454    -364.771    -222.390
  N      312.744    -362.722    -219.111
  C      311.520    -363.333    -218.877
  N      311.118    -363.402    -217.594
  N      310.764    -363.825    -219.825
  C      311.288    -363.667    -221.068
  C      312.476    -363.076    -221.421
  C      313.310    -362.550    -220.368
  O      314.405    -362.008    -220.515
  N      312.665    -363.099    -222.779
  C      311.579    -363.683    -223.246
  N      310.705    -364.047    -222.248
  O      310.739    -361.593    -227.229
  O      308.922    -362.860    -228.500
  H      307.402    -365.153    -220.866
  H      310.920    -361.329    -228.149
  H      313.283    -362.351    -218.350
  H      311.382    -363.870    -224.290
  H      309.502    -365.623    -221.709
  H      308.295    -363.098    -221.453
  H      311.637    -363.021    -216.822
  H      308.558    -362.599    -223.837
  H      310.230    -363.848    -217.400
  H      307.395    -365.414    -224.330
  H      308.876    -365.354    -226.331
  H      307.598    -364.107    -226.370
  P      306.172    -361.539    -224.022
  C      306.081    -360.803    -221.537
  O      305.367    -360.980    -222.751
  O      305.054    -361.652    -225.157
  O      307.319    -360.698    -224.469
  H      305.399    -361.313    -226.010
  H      305.419    -360.428    -220.785
  H      306.878    -360.106    -221.690
  H      306.484    -361.742    -221.220

 6  7  8  9  10  11  12  13  14  15  26  29  33  34 0
 6-311+G(2d,p)
 ****
 36  38  39  40  41 0
 6-311+G(2d,p)
 ****
 1  2  3  4  5  16  17  18  19  20  21  22  23  24  25 0
 3-21G
 ****
 27  28  30  31  32  35  37  42  43  44  45  46  47 0
 3-21G
 ****
 48  49 0
 3-21G
 ****


