%nproc=1
%NoSave
%Mem=1900MB
#P OB98/GEN NMR

erre ene a

0 1
  C     -252.999     277.106    -155.615
  O     -252.550     277.934    -154.560
  P     -252.406     277.306    -153.096
  C     -254.760     278.215    -152.456
  O     -253.891     277.098    -152.513
  C     -255.841     278.008    -151.392
  O     -256.699     276.883    -151.790
  C     -255.288     277.685    -149.996
  O     -256.185     278.265    -149.034
  C     -255.389     276.166    -149.939
  O     -255.367     275.655    -148.617
  C     -256.722     275.966    -150.682
  N     -256.913     274.582    -151.129
  C     -257.848     273.818    -150.438
  O     -258.504     274.222    -149.489
  N     -257.960     272.506    -150.850
  C     -257.183     271.888    -151.795
  O     -257.253     270.685    -152.025
  C     -256.219     272.751    -152.490
  C     -256.127     274.043    -152.135
  O     -251.820     278.520    -152.224
  O     -251.538     276.093    -153.022
  H     -254.510     275.906    -148.226
  H     -250.856     278.408    -152.102
  H     -258.637     271.933    -150.373
  H     -255.598     272.295    -153.254
  H     -255.403     274.698    -152.609
  H     -257.565     276.263    -150.038
  H     -254.560     275.726    -150.493
  H     -254.271     278.042    -149.836
  H     -256.476     278.897    -151.354
  H     -255.233     278.344    -153.433
  H     -254.189     279.125    -152.243
  P     -255.545     279.096    -147.816
  C     -255.965     277.280    -145.981
  O     -255.033     278.021    -146.741
  O     -256.867     279.714    -147.148
  O     -254.551     280.132    -148.248
  H     -257.591     279.074    -147.088
  H     -256.864     277.052    -146.561
  H     -256.243     277.840    -145.093
  H     -255.499     276.338    -145.680
  H     -253.040     277.674    -156.521
  H     -253.974     276.732    -155.384
  H     -252.322     276.286    -155.738

 3  4  5  6  7  8  9  10  11  12  13  23  28  29  30  31  32 0
 6-311+G(2d,p)
 ****
 33  34 0
 6-311+G(2d,p)
 ****
 1  2  14  15  16  17  18  19  20  21  22  24  25  26 0
 3-21G
 ****
 27  35  36  37  38  39  40  41  42  43  44  45 0
 3-21G
 ****


