%nproc=1
%NoSave
%Mem=1900MB
#P OB98/GEN NMR

erre ene a

0 1
  C     -328.893     147.933      92.495
  O     -329.777     147.329      93.412
  P     -329.474     145.865      93.991
  C     -328.771     143.675      92.835
  O     -329.553     144.862      92.739
  C     -328.277     143.259      91.451
  O     -327.631     144.366      90.772
  C     -327.223     142.164      91.472
  O     -327.616     140.888      91.929
  C     -326.673     142.255      90.058
  O     -327.510     141.569      89.128
  C     -326.722     143.783      89.806
  N     -325.394     144.391      89.875
  C     -324.574     144.189      88.771
  O     -324.914     143.546      87.778
  N     -323.321     144.732      88.850
  C     -322.804     145.401      89.922
  O     -321.654     145.823      89.944
  C     -323.711     145.566      91.065
  C     -324.945     145.063      90.994
  O     -330.305     145.461      95.162
  O     -327.902     145.906      94.293
  H     -328.365     142.040      89.099
  H     -327.343     146.086      93.516
  H     -322.705     144.587      88.066
  H     -323.335     146.103      91.927
  H     -325.633     145.171      91.826
  H     -327.141     143.992      88.814
  H     -325.674     141.812      89.979
  H     -326.415     142.481      92.148
  H     -329.144     142.973      90.850
  H     -329.391     142.873      93.249
  H     -327.935     143.843      93.522
  P     -326.580     139.763      92.401
  C     -324.550     138.622      91.264
  O     -325.832     139.190      91.106
  O     -327.076     138.772      93.402
  O     -325.427     140.653      93.079
  H     -325.017     140.143      93.803
  H     -324.174     138.329      90.281
  H     -324.601     137.733      91.897
  H     -323.858     139.350      91.697
  H     -329.263     148.900      92.227
  H     -328.818     147.324      91.618
  H     -327.927     148.033      92.944

 3  4  5  6  7  8  9  10  11  12  13  23  28  29  30  31  32 0
 6-311+G(2d,p)
 ****
 33  34 0
 6-311+G(2d,p)
 ****
 1  2  14  15  16  17  18  19  20  21  22  24  25  26  27 0
 3-21G
 ****
 35  36  37  38  39  40  41  42  43  44  45 0
 3-21G
 ****


