%nproc=1
%NoSave
%Mem=1900MB
#P OB98/GEN NMR

erre ene a

0 1
  C     -270.133     674.248    -404.495
  O     -271.216     674.003    -405.400
  P     -272.337     672.967    -404.898
  C     -274.515     673.994    -405.888
  O     -273.530     672.968    -405.979
  C     -275.649     673.739    -406.874
  O     -275.236     673.916    -408.247
  C     -276.219     672.320    -406.794
  O     -277.124     672.222    -405.702
  C     -276.925     672.196    -408.148
  O     -278.237     672.786    -408.124
  C     -275.999     673.005    -409.080
  N     -274.975     671.332    -413.753
  C     -276.075     672.013    -413.281
  N     -277.023     672.319    -414.189
  N     -276.223     672.378    -412.036
  C     -275.198     672.009    -411.240
  C     -274.036     671.356    -411.602
  C     -273.878     670.967    -412.985
  O     -272.905     670.383    -413.464
  N     -273.193     671.210    -410.527
  C     -273.880     671.659    -409.513
  N     -275.087     672.212    -409.880
  O     -272.970     673.686    -403.620
  O     -271.783     671.620    -404.557
  H     -278.172     673.669    -407.730
  H     -272.716     673.207    -402.811
  H     -274.913     671.081    -414.734
  H     -273.571     671.634    -408.469
  H     -276.581     673.627    -409.786
  H     -277.044     671.150    -408.439
  H     -276.984     672.083    -415.162
  H     -275.420     671.599    -406.718
  H     -277.852     672.826    -413.859
  H     -276.444     674.469    -406.665
  H     -274.061     674.963    -406.081
  H     -274.885     674.014    -404.857
  P     -277.046     670.916    -404.778
  C     -276.962     672.000    -402.417
  O     -277.713     671.275    -403.371
  O     -275.476     670.809    -404.444
  O     -277.538     669.671    -405.426
  H     -275.177     669.880    -404.535
  H     -277.635     672.608    -401.790
  H     -276.221     672.674    -402.892
  H     -276.422     671.294    -401.766
  H     -269.454     674.949    -404.933
  H     -269.620     673.330    -404.296
  H     -270.517     674.648    -403.580

 3  4  5  6  7  8  9  10  11  12  23  26  30  31 0
 6-311+G(2d,p)
 ****
 33  35  36  37  38 0
 6-311+G(2d,p)
 ****
 1  2  13  14  15  16  17  18  19  20  21  22  24  25 0
 3-21G
 ****
 27  28  29  32  34  39  40  41  42  43  44  45  46  47  48  49 0
 3-21G
 ****


