%nproc=1
%NoSave
%Mem=1900MB
#P OB98/GEN NMR

erre ene a

0 1
  C     -146.188     490.246    -578.195
  O     -145.000     490.592    -577.509
  H     -146.890     489.802    -577.480
  H     -145.975     489.515    -578.981
  H     -146.641     491.140    -578.630
  P     -143.797     491.163    -578.407
  C     -142.274     490.004    -580.178
  O     -143.458     489.950    -579.401
  C     -141.524     488.673    -580.077
  O     -141.023     488.476    -578.736
  C     -142.385     487.452    -580.371
  O     -142.592     487.234    -581.759
  C     -141.534     486.361    -579.752
  O     -140.422     486.069    -580.615
  C     -141.064     487.054    -578.454
  N     -141.940     486.782    -577.307
  C     -141.597     485.700    -576.488
  O     -140.611     485.015    -576.743
  N     -142.403     485.398    -575.416
  C     -143.459     486.115    -575.172
  N     -144.222     485.759    -574.108
  C     -143.846     487.276    -575.999
  C     -143.057     487.550    -577.026
  O     -142.544     491.156    -577.410
  O     -144.049     492.477    -579.066
  H     -140.783     485.582    -581.383
  H     -141.717     491.376    -577.905
  H     -144.737     487.843    -575.759
  H     -143.280     488.388    -577.687
  H     -140.050     486.737    -578.185
  H     -142.079     485.426    -579.597
  H     -143.343     487.493    -579.839
  H     -140.656     488.722    -580.747
  H     -143.972     484.924    -573.597
  H     -141.646     490.815    -579.799
  H     -145.146     486.143    -573.950
  H     -142.521     490.199    -581.226
  P     -144.065     486.831    -582.242
  C     -145.023     485.217    -584.046
  O     -143.906     485.578    -583.237
  O     -144.461     488.026    -583.235
  O     -145.067     486.660    -581.146
  H     -145.400     488.271    -583.130
  H     -144.767     484.372    -584.650
  H     -145.287     486.040    -584.677
  H     -145.853     484.968    -583.418

 6  7  8  9  10  11  12  13  14  15  16  26  30  31  32  33  35 0
 6-311+G(2d,p)
 ****
 37  38 0
 6-311+G(2d,p)
 ****
 1  2  3  4  5  17  18  19  20  21  22  23  24  25 0
 3-21G
 ****
 27  28  29  34  36  39  40  41  42  43  44  45  46 0
 3-21G
 ****


