%nproc=1
%NoSave
%Mem=1900MB
#P OB98/GEN NMR

erre ene a

0 1
  C       17.155      24.873      42.472
  O       15.819      24.882      42.017
  P       15.127      26.159      41.353
  C       13.509      24.595      40.055
  O       13.647      25.743      40.886
  C       12.045      24.182      39.844
  O       11.320      25.273      39.243
  C       11.965      23.014      38.856
  O       12.157      21.688      39.304
  C       10.680      23.247      38.072
  O        9.588      22.471      38.567
  C       10.409      24.740      38.269
  N        7.953      26.670      34.278
  C        7.437      26.173      35.459
  N        6.098      26.000      35.492
  N        8.173      25.858      36.493
  C        9.501      25.996      36.273
  C       10.128      26.489      35.153
  C        9.302      26.874      34.033
  O        9.724      27.238      32.939
  N       11.492      26.415      35.257
  C       11.695      25.839      36.424
  N       10.516      25.530      37.059
  O       15.968      26.972      40.424
  O       14.829      27.068      42.653
  H        9.839      21.531      38.513
  H       14.928      28.002      42.386
  H        7.342      26.822      33.485
  H       12.666      25.595      36.837
  H        9.399      24.900      38.666
  H       10.810      22.960      37.022
  H        5.521      26.095      34.669
  H       12.770      23.164      38.125
  H        5.707      25.483      36.272
  H       11.550      23.985      40.798
  H       14.076      23.784      40.521
  H       13.969      24.792      39.084
  P       13.072      20.574      38.612
  C       13.654      19.562      40.888
  O       13.152      19.308      39.588
  O       14.554      21.176      38.688
  O       12.714      20.255      37.198
  H       15.113      20.761      38.006
  H       13.947      18.616      41.348
  H       12.872      20.026      41.497
  H       14.523      20.224      40.850
  H       17.388      23.910      42.875
  H       17.278      25.617      43.231
  H       17.812      25.086      41.654

 3  4  5  6  7  8  9  10  11  12  23  26  30  31 0
 6-311+G(2d,p)
 ****
 33  35  36  37  38 0
 6-311+G(2d,p)
 ****
 1  2  13  14  15  16  17  18  19  20  21  22  24  25 0
 3-21G
 ****
 27  28  29  32  34  39  40  41  42  43  44  45  46  47  48  49 0
 3-21G
 ****


