%nproc=1
%NoSave
%Mem=1900MB
#P OB98/GEN NMR

erre ene a

0 1
  C      -24.539      64.573       9.976
  O      -25.341      64.473      11.137
  H      -24.109      63.592       9.761
  H      -23.727      65.286      10.141
  H      -25.146      64.889       9.124
  P      -26.016      65.834      11.654
  C      -27.590      66.447       9.688
  O      -26.354      66.696      10.342
  C      -28.171      67.745       9.134
  O      -29.367      67.483       8.369
  C      -28.544      68.771      10.197
  O      -27.413      69.528      10.592
  C      -29.578      69.604       9.453
  O      -28.940      70.556       8.574
  C      -30.330      68.537       8.645
  N      -35.374      68.613       8.829
  C      -34.498      69.374       8.082
  N      -35.044      70.317       7.283
  N      -33.199      69.235       8.121
  C      -32.790      68.296       9.005
  C      -33.557      67.478       9.803
  C      -34.995      67.606       9.709
  O      -35.824      66.907      10.282
  N      -32.773      66.639      10.553
  C      -31.537      66.973      10.233
  N      -31.495      67.977       9.302
  O      -24.790      66.631      12.311
  O      -27.133      65.667      12.626
  H      -29.573      71.263       8.358
  H      -25.111      67.098      13.105
  H      -36.365      68.743       8.735
  H      -30.645      66.513      10.638
  H      -30.672      68.923       7.678
  H      -30.195      70.186      10.139
  H      -35.982      70.662       7.426
  H      -29.020      68.290      11.060
  H      -34.397      70.922       6.793
  H      -27.432      68.164       8.438
  H      -28.290      66.014      10.409
  H      -27.430      65.736       8.873
  P      -27.487      70.336      11.973
  C      -28.033      68.345      13.547
  O      -28.488      69.551      12.952
  O      -28.307      71.652      11.573
  O      -26.163      70.690      12.560
  H      -27.703      72.415      11.518
  H      -28.805      67.940      14.168
  H      -27.166      68.545      14.141
  H      -27.786      67.640      12.781

 6  7  8  9  10  11  12  13  14  15  26  29  33  34 0
 6-311+G(2d,p)
 ****
 36  38  39  40  41 0
 6-311+G(2d,p)
 ****
 1  2  3  4  5  16  17  18  19  20  21  22  23  24  25 0
 3-21G
 ****
 27  28  30  31  32  35  37  42  43  44  45  46  47 0
 3-21G
 ****
 48  49 0
 3-21G
 ****


