%nproc=1
%NoSave
%Mem=1900MB
#P OB98/GEN NMR

erre ene a

0 1
  C      -47.082      23.208      61.732
  O      -46.408      23.753      62.848
  H      -48.089      23.630      61.688
  H      -47.160      22.121      61.829
  H      -46.550      23.460      60.811
  P      -44.939      23.172      63.146
  C      -46.151      21.427      64.661
  O      -45.222      21.661      63.614
  C      -46.308      19.926      64.883
  O      -47.162      19.349      63.872
  C      -45.001      19.145      64.805
  O      -44.226      19.246      65.988
  C      -45.535      17.740      64.598
  O      -46.038      17.226      65.844
  C      -46.687      18.003      63.600
  N      -46.276      17.875      62.202
  C      -46.600      16.674      61.559
  O      -47.190      15.780      62.163
  N      -46.215      16.498      60.251
  C      -45.574      17.442      59.634
  N      -45.207      17.209      58.345
  C      -45.229      18.728      60.266
  C      -45.604      18.875      61.534
  O      -44.522      23.888      64.516
  O      -43.942      23.317      62.047
  H      -45.441      17.547      66.545
  H      -43.678      23.500      64.852
  H      -44.684      19.480      59.714
  H      -45.382      19.794      62.066
  H      -47.525      17.319      63.782
  H      -44.776      17.041      64.243
  H      -44.413      19.429      63.926
  H      -46.804      19.778      65.852
  H      -45.402      16.295      57.958
  H      -47.111      21.870      64.377
  H      -44.555      17.804      57.848
  H      -45.800      21.896      65.585
  P      -42.630      19.137      65.844
  C      -42.925      16.722      66.753
  O      -42.267      17.574      65.826
  O      -42.105      19.619      67.275
  O      -42.040      19.943      64.729
  H      -41.296      20.159      67.192
  H      -42.581      15.717      66.620
  H      -43.981      16.762      66.587
  H      -42.708      17.045      67.750

 6  7  8  9  10  11  12  13  14  15  16  26  30  31  32  33  35 0
 6-311+G(2d,p)
 ****
 37  38 0
 6-311+G(2d,p)
 ****
 1  2  3  4  5  17  18  19  20  21  22  23  24  25 0
 3-21G
 ****
 27  28  29  34  36  39  40  41  42  43  44  45  46 0
 3-21G
 ****


