%nproc=1
%NoSave
%Mem=1900MB
#P OB98/GEN NMR

erre ene a

0 1
  C      103.311    -145.622     -66.554
  O      103.400    -145.454     -67.957
  P      104.280    -144.242     -68.523
  C      102.386    -142.468     -68.419
  O      103.287    -143.203     -69.238
  C      101.562    -141.485     -69.256
  O      100.591    -140.821     -68.411
  C      102.407    -140.394     -69.925
  O      101.823    -140.050     -71.193
  C      102.231    -139.203     -69.008
  O      102.473    -137.972     -69.697
  C      100.784    -139.398     -68.560
  N       99.314    -135.009     -66.524
  C       99.250    -135.434     -67.837
  N       98.806    -134.527     -68.739
  N       99.573    -136.636     -68.224
  C      100.005    -137.429     -67.216
  C      100.101    -137.127     -65.870
  C       99.749    -135.787     -65.458
  O       99.811    -135.344     -64.316
  N      100.543    -138.206     -65.149
  C      100.761    -139.145     -66.052
  N      100.481    -138.710     -67.321
  O      105.067    -144.911     -69.748
  O      105.229    -143.649     -67.538
  H      102.341    -137.255     -69.042
  H      105.999    -145.062     -69.502
  H       99.061    -134.065     -66.269
  H      101.136    -140.139     -65.839
  H      100.074    -139.047     -69.320
  H      102.928    -139.266     -68.164
  H       98.601    -133.563     -68.508
  H      103.463    -140.659     -70.067
  H       98.791    -134.798     -69.710
  H      101.000    -142.057     -70.006
  H      102.958    -141.908     -67.673
  H      101.723    -143.164     -67.891
  P      102.645    -140.523     -72.495
  C      103.666    -138.124     -72.522
  O      103.063    -139.174     -73.254
  O      101.508    -141.152     -73.433
  O      103.746    -141.482     -72.205
  H      101.902    -141.808     -74.043
  H      104.680    -137.963     -72.900
  H      103.716    -138.343     -71.448
  H      103.086    -137.210     -72.670
  H      102.693    -146.467     -66.335
  H      102.884    -144.744     -66.116
  H      104.289    -145.781     -66.151

 3  4  5  6  7  8  9  10  11  12  23  26  30  31 0
 6-311+G(2d,p)
 ****
 33  35  36  37  38 0
 6-311+G(2d,p)
 ****
 1  2  13  14  15  16  17  18  19  20  21  22  24  25 0
 3-21G
 ****
 27  28  29  32  34  39  40  41  42  43  44  45  46  47  48  49 0
 3-21G
 ****


