%nproc=1
%NoSave
%Mem=1900MB
#P OB98/GEN NMR

erre ene a

0 1
  C      -24.005     -62.517      45.279
  O      -24.094     -63.131      46.554
  P      -22.740     -63.292      47.401
  C      -23.349     -65.814      47.841
  O      -22.977     -64.549      48.367
  C      -23.256     -66.886      48.931
  O      -21.872     -67.155      49.237
  C      -23.898     -66.499      50.257
  O      -25.313     -66.604      50.210
  C      -23.218     -67.475      51.209
  O      -23.848     -68.765      51.137
  C      -21.794     -67.546      50.625
  N      -20.829     -66.722      51.352
  C      -20.476     -67.167      52.622
  O      -20.930     -68.192      53.128
  N      -19.587     -66.377      53.304
  C      -19.082     -65.183      52.879
  O      -18.324     -64.494      53.549
  C      -19.518     -64.749      51.543
  C      -20.357     -65.525      50.853
  O      -22.840     -62.016      48.361
  O      -21.519     -63.350      46.549
  H      -23.764     -61.751      48.514
  H      -24.700     -68.683      51.607
  H      -19.297     -66.690      54.219
  H      -19.145     -63.801      51.175
  H      -20.697     -65.216      49.872
  H      -21.433     -68.582      50.630
  H      -23.264     -67.146      52.252
  H      -23.616     -65.472      50.521
  H      -23.706     -67.809      48.542
  H      -22.677     -66.069      47.018
  H      -24.371     -65.751      47.452
  P      -26.127     -65.242      49.946
  C      -26.361     -64.456      52.428
  O      -26.985     -64.970      51.272
  O      -27.206     -65.728      48.870
  O      -25.267     -64.108      49.492
  H      -27.585     -66.598      49.081
  H      -27.126     -64.012      53.072
  H      -25.623     -63.689      52.178
  H      -25.871     -65.269      52.972
  H      -24.977     -62.478      44.833
  H      -23.349     -63.086      44.654
  H      -23.622     -61.524      45.387

 3  4  5  6  7  8  9  10  11  12  13  24  28  29  30  31  32 0
 6-311+G(2d,p)
 ****
 33  34 0
 6-311+G(2d,p)
 ****
 1  2  14  15  16  17  18  19  20  21  22  23  25  26  27 0
 3-21G
 ****
 35  36  37  38  39  40  41  42  43  44  45 0
 3-21G
 ****


