%nproc=1
%NoSave
%Mem=1900MB
#P OB98/GEN NMR

erre ene a

0 1
  C       43.923     -17.452      22.815
  O       44.572     -18.255      21.855
  H       43.455     -18.104      23.557
  H       43.145     -16.857      22.329
  H       44.626     -16.789      23.325
  P       45.700     -17.594      20.934
  C       47.534     -17.116      22.686
  O       46.539     -16.562      21.834
  C       48.908     -17.130      22.016
  O       48.865     -17.959      20.835
  C       49.354     -15.737      21.562
  O       50.023     -14.981      22.556
  C       50.289     -16.069      20.402
  O       51.634     -16.281      20.861
  C       49.704     -17.366      19.835
  N       49.245     -18.341      14.837
  C       50.298     -18.635      15.685
  N       51.368     -19.227      15.114
  N       50.293     -18.354      16.961
  C       49.197     -17.673      17.365
  C       48.101     -17.309      16.614
  C       48.081     -17.690      15.218
  O       47.168     -17.468      14.431
  N       47.197     -16.590      17.357
  C       47.787     -16.448      18.527
  N       48.964     -17.155      18.604
  O       44.868     -16.615      19.973
  O       46.518     -18.555      20.126
  H       51.656     -17.125      21.352
  H       45.314     -16.549      19.109
  H       49.293     -18.608      13.871
  H       47.388     -15.885      19.364
  H       50.493     -18.095      19.609
  H       50.328     -15.244      19.686
  H       51.459     -19.387      14.125
  H       48.507     -15.170      21.165
  H       52.232     -19.286      15.657
  H       49.638     -17.582      22.699
  H       47.217     -18.136      22.910
  H       47.574     -16.568      23.631
  P       50.159     -13.394      22.427
  C       47.756     -13.168      23.458
  O       48.699     -12.756      22.494
  O       50.583     -13.191      20.898
  O       51.128     -12.754      23.367
  H       51.546     -13.063      20.822
  H       46.848     -12.617      23.327
  H       48.145     -12.987      24.438
  H       47.559     -14.213      23.340

 6  7  8  9  10  11  12  13  14  15  26  29  33  34 0
 6-311+G(2d,p)
 ****
 36  38  39  40  41 0
 6-311+G(2d,p)
 ****
 1  2  3  4  5  16  17  18  19  20  21  22  23  24  25 0
 3-21G
 ****
 27  28  30  31  32  35  37  42  43  44  45  46  47 0
 3-21G
 ****
 48  49 0
 3-21G
 ****


