%nproc=1
%NoSave
%Mem=1900MB
#P OB98/GEN NMR

erre ene a

0 1
  C      320.245     216.653    -361.735
  O      320.681     217.791    -362.486
  P      320.808     217.600    -364.078
  C      318.265     217.177    -364.442
  O      319.395     217.996    -364.724
  C      317.453     216.927    -365.713
  O      316.545     215.824    -365.533
  C      316.575     218.099    -366.128
  O      317.322     219.097    -366.813
  C      315.602     217.412    -367.078
  O      316.195     217.282    -368.383
  C      315.426     216.028    -366.431
  N      310.936     213.698    -366.098
  C      311.939     213.560    -367.039
  N      311.722     212.650    -368.014
  N      313.047     214.250    -367.025
  C      313.138     215.099    -365.973
  C      312.218     215.326    -364.978
  C      310.977     214.578    -365.024
  O      310.044     214.688    -364.233
  N      312.666     216.255    -364.075
  C      313.871     216.569    -364.508
  N      314.195     215.906    -365.665
  O      320.857     216.006    -364.244
  O      322.005     218.260    -364.674
  H      316.214     218.175    -368.780
  H      321.338     215.769    -365.060
  H      310.096     213.148    -366.160
  H      314.544     217.266    -364.020
  H      315.450     215.223    -367.172
  H      314.670     217.972    -367.208
  H      310.924     212.036    -368.043
  H      316.028     218.510    -365.268
  H      312.461     212.511    -368.691
  H      318.151     216.674    -366.519
  H      317.633     217.659    -363.693
  H      318.613     216.233    -364.007
  P      316.696     220.573    -366.862
  C      317.080     221.564    -364.496
  O      317.554     221.436    -365.820
  O      315.276     220.391    -366.140
  O      316.560     221.141    -368.236
  H      314.637     221.042    -366.485
  H      316.712     220.607    -364.112
  H      316.278     222.306    -364.461
  H      317.902     221.898    -363.857
  H      320.202     216.906    -360.696
  H      320.934     215.847    -361.877
  H      319.274     216.355    -362.070

 3  4  5  6  7  8  9  10  11  12  23  26  30  31  33  0
 6-311+G(2d,p)
 ****
 35  36  37  38 0
 6-311+G(2d,p)
 ****
 1  2  13  14  15  16  17  18  19  20  21  22  24  25  27  28  29 0
 3-21G
 ****
 32  34  39  40  41  42  43  44  45  46  47  48  49 0
 3-21G
 ****


