%nproc=1
%NoSave
%Mem=1900MB
#P OB98/GEN NMR

erre ene a

0 1
  C      209.107      90.110    -104.088
  O      208.982      89.154    -105.131
  P      207.851      89.408    -106.244
  C      205.439      90.452    -106.116
  O      206.544      89.869    -105.441
  C      204.127      90.027    -105.446
  O      203.935      88.604    -105.600
  C      204.065      90.291    -103.947
  O      203.823      91.654    -103.657
  C      202.948      89.340    -103.528
  O      201.665      89.924    -103.809
  C      203.192      88.129    -104.455
  N      203.895      87.027    -103.790
  C      203.115      85.926    -103.445
  O      201.906      85.857    -103.670
  N      203.772      84.908    -102.803
  C      205.088      84.908    -102.430
  O      205.618      83.987    -101.819
  C      205.852      86.111    -102.796
  C      205.230      87.101    -103.450
  O      207.545      87.903    -106.697
  O      208.296      90.320    -107.338
  H      207.729      87.268    -105.983
  H      200.994      89.263    -103.548
  H      203.235      84.086    -102.563
  H      206.894      86.155    -102.510
  H      205.773      87.999    -103.720
  H      202.242      87.752    -104.846
  H      202.972      89.101    -102.457
  H      205.006      89.977    -103.479
  H      203.297      90.538    -105.962
  H      205.442      90.126    -107.160
  H      205.543      91.545    -106.096
  P      204.704      92.310    -102.475
  C      205.112      91.627     -99.983
  O      204.301      91.529    -101.137
  O      204.002      93.744    -102.322
  O      206.166      92.363    -102.778
  H      203.029      93.698    -102.365
  H      204.517      91.344     -99.114
  H      205.481      92.648     -99.844
  H      205.959      90.941    -100.072
  H      209.893      89.814    -103.425
  H      208.187      90.168    -103.545
  H      209.335      91.068    -104.507

 3  4  5  6  7  8  9  10  11  12  13  24  28  29  30  31  32 0
 6-311+G(2d,p)
 ****
 33  34 0
 6-311+G(2d,p)
 ****
 1  2  14  15  16  17  18  19  20  21  22  23  25  26  27 0
 3-21G
 ****
 35  36  37  38  39  40  41  42  43  44  45 0
 3-21G
 ****


