%nproc=1
%NoSave
%Mem=1900MB
#P OB98/GEN NMR

erre ene a

0 1
  C      665.709     328.698     326.331
  O      664.344     328.413     326.564
  H      665.782     329.457     325.550
  H      666.226     327.793     325.994
  H      666.178     329.077     327.242
  P      664.015     327.490     327.832
  C      662.994     325.094     328.137
  O      663.629     326.028     327.278
  C      662.134     324.132     327.318
  O      661.110     324.848     326.596
  C      662.888     323.391     326.230
  O      663.736     322.383     326.740
  C      661.732     322.838     325.407
  O      661.230     321.611     325.948
  C      660.677     323.968     325.534
  N      660.486     324.673     324.281
  C      659.622     324.041     323.358
  O      659.088     322.975     323.657
  N      659.440     324.610     322.129
  C      660.084     325.709     321.831
  N      659.883     326.200     320.575
  C      660.989     326.401     322.767
  C      661.143     325.835     323.958
  O      662.610     328.077     328.326
  O      665.076     327.471     328.884
  H      660.498     321.333     325.359
  H      661.956     328.176     327.619
  H      661.483     327.309     322.464
  H      661.795     326.277     324.703
  H      659.710     323.549     325.846
  H      662.033     322.633     324.377
  H      663.448     324.098     325.608
  H      661.642     323.430     328.016
  H      659.288     325.666     319.955
  H      662.384     325.606     328.885
  H      660.382     326.998     320.206
  H      663.778     324.546     328.671
  P      665.055     321.928     325.967
  C      665.640     319.991     324.360
  O      664.602     320.816     324.890
  O      666.201     321.508     326.824
  O      665.371     323.184     325.016
  H      664.665     323.418     324.399
  H      665.222     319.297     323.661
  H      666.111     319.455     325.157
  H      666.364     320.603     323.865

 6  7  8  9  10  11  12  13  14  15  16  26  30  31  32  33  35 0
 6-311+G(2d,p)
 ****
 37  38 0
 6-311+G(2d,p)
 ****
 1  2  3  4  5  17  18  19  20  21  22  23  24  25 0
 3-21G
 ****
 27  28  29  34  36  39  40  41  42  43  44  45  46 0
 3-21G
 ****


