%nproc=1
%NoSave
%Mem=1900MB
#P OB98/GEN NMR

erre ene a

0 1
  C      -67.194    -132.774    -219.452
  O      -66.405    -132.559    -218.281
  P      -65.111    -131.626    -218.467
  C      -64.097    -133.268    -220.196
  O      -64.497    -131.935    -219.918
  C      -63.638    -133.413    -221.651
  O      -62.462    -132.586    -221.905
  C      -63.268    -134.854    -222.040
  O      -63.655    -135.023    -223.410
  C      -61.754    -134.839    -221.905
  O      -61.123    -135.931    -222.554
  C      -61.456    -133.456    -222.469
  N      -56.805    -132.595    -224.376
  C      -57.930    -133.095    -224.932
  N      -59.133    -133.296    -224.353
  C      -59.105    -132.916    -223.065
  C      -58.033    -132.392    -222.359
  C      -56.833    -132.232    -223.073
  N      -55.675    -131.744    -222.512
  N      -58.389    -132.146    -221.042
  C      -59.631    -132.587    -220.950
  N      -60.128    -132.980    -222.160
  O      -64.047    -132.258    -217.454
  O      -65.372    -130.182    -218.191
  H      -61.313    -135.901    -223.513
  H      -64.016    -131.744    -216.627
  H      -57.854    -133.372    -225.980
  H      -60.211    -132.640    -220.039
  H      -61.565    -133.422    -223.561
  H      -61.486    -134.890    -220.842
  H      -63.763    -135.614    -221.431
  H      -64.440    -133.046    -222.304
  H      -64.927    -133.955    -220.014
  H      -54.863    -131.671    -223.103
  H      -55.652    -131.475    -221.540
  H      -63.302    -133.556    -219.500
  P      -65.009    -135.820    -223.738
  C      -64.337    -138.071    -224.767
  O      -64.614    -137.367    -223.572
  O      -65.052    -135.680    -225.335
  O      -66.240    -135.342    -223.048
  H      -64.199    -135.929    -225.732
  H      -64.006    -139.081    -224.508
  H      -63.543    -137.569    -225.327
  H      -65.241    -138.142    -225.377
  H      -68.024    -133.406    -219.212
  H      -66.595    -133.243    -220.205
  H      -67.554    -131.835    -219.817

 3  4  5  6  7  8  9  10  11  12  22  25  29  30  31  32 0
 6-311+G(2d,p)
 ****
 33  36  37 0
 6-311+G(2d,p)
 ****
 1  2  13  14  15  16  17  18  19  20  21  23  24  26 0
 3-21G
 ****
 27  28  34  35  38  39  40  41  42  43  44  45  46  47  48 0
 3-21G
 ****


