%nproc=1
%NoSave
%Mem=1900MB
#P OB98/GEN NMR

erre ene a

0 1
  C      283.166    -896.700      74.767
  O      282.675    -896.970      76.067
  H      282.734    -895.750      74.424
  H      282.875    -897.480      74.074
  H      284.257    -896.590      74.778
  P      283.298    -898.210      76.877
  C      283.930    -896.860      78.991
  O      283.101    -897.870      78.436
  C      283.434    -896.470      80.397
  O      282.294    -895.570      80.245
  C      282.964    -897.660      81.251
  O      283.203    -897.310      82.624
  C      281.468    -897.660      80.947
  O      280.731    -898.490      81.815
  C      281.205    -896.150      80.995
  N      279.916    -895.720      80.449
  C      279.138    -894.860      81.218
  O      279.457    -894.440      82.342
  N      277.945    -894.500      80.679
  C      277.451    -894.880      79.452
  O      276.383    -894.490      79.008
  C      278.312    -895.790      78.689
  C      279.491    -896.160      79.208
  O      284.675    -898.610      76.488
  O      282.236    -899.390      76.640
  H      282.588    -900.000      75.958
  H      281.268    -899.290      82.009
  H      277.362    -893.870      81.211
  H      277.959    -896.120      77.731
  H      280.160    -896.820      78.665
  H      281.290    -895.780      82.014
  H      281.302    -898.060      79.944
  H      283.469    -898.590      81.020
  H      284.220    -895.910      80.900
  H      283.901    -895.990      78.330
  H      284.958    -897.230      79.054
  P      283.722    -898.360      83.727
  C      286.235    -898.350      83.061
  O      285.252    -898.020      84.063
  O      283.485    -899.790      83.364
  O      282.943    -897.970      85.079
  H      282.871    -898.760      85.649
  H      287.208    -898.073      83.411
  H      286.016    -897.819      82.158
  H      286.211    -899.403      82.871

 6  7  8  9  10  11  12  13  14  15  16  27  31  32  33  34  35 0
 6-311+G(2d,p)
 ****
 36  37 0
 6-311+G(2d,p)
 ****
 1  2  3  4  5  17  18  19  20  21  22  23  24  25 0
 3-21G
 ****
 26  28  29  30  38  39  40  41  42  43  44  45 0
 3-21G
 ****


