%nproc=1
%NoSave
%Mem=1900MB
#P OB98/GEN NMR

erre ene a

0 1
  C      -77.865     231.649     247.733
  O      -78.268     232.953     248.101
  H      -78.442     230.927     248.315
  H      -76.801     231.503     247.948
  H      -78.059     231.484     246.670
  P      -77.494     234.171     247.395
  C      -78.777     234.819     245.249
  O      -78.652     235.010     246.654
  C      -80.000     235.567     244.715
  O      -81.195     234.860     245.147
  C      -80.109     237.009     245.225
  O      -80.651     237.833     244.186
  C      -81.116     236.905     246.358
  O      -81.757     238.147     246.630
  C      -82.040     235.807     245.829
  N      -86.653     235.286     247.931
  C      -86.245     235.846     246.774
  N      -84.989     235.921     246.277
  C      -84.118     235.280     247.085
  C      -84.389     234.665     248.296
  C      -85.729     234.690     248.726
  N      -86.145     234.151     249.920
  N      -83.221     234.167     248.849
  C      -82.272     234.468     247.984
  N      -82.768     235.163     246.911
  O      -76.339     233.787     246.530
  O      -77.136     235.105     248.642
  H      -81.075     238.790     246.919
  H      -77.904     235.224     249.235
  H      -87.024     236.306     246.166
  H      -81.218     234.226     248.094
  H      -82.785     236.186     245.116
  H      -80.609     236.577     247.274
  H      -79.155     237.423     245.560
  H      -79.987     235.530     243.618
  H      -78.869     233.751     245.021
  H      -87.131     234.212     250.150
  H      -85.480     233.699     250.524
  H      -77.864     235.197     244.778
  P      -80.013     239.278     243.918
  C      -77.758     238.611     242.854
  O      -79.041     239.189     242.638
  O      -79.421     239.956     245.115
  O      -81.257     240.114     243.343
  H      -81.249     241.011     243.739
  H      -77.209     238.608     241.936
  H      -77.874     237.606     243.204
  H      -77.227     239.184     243.585

 6  7  8  9  10  11  12  13  14  15  25  28  32  33  34  35 0
 6-311+G(2d,p)
 ****
 36  39  40 0
 6-311+G(2d,p)
 ****
 1  2  3  4  5  16  17  18  19  20  21  22  23  24 0
 3-21G
 ****
 26  27  29  30  31  37  38  41  42  43  44  45  46  47 0
 3-21G
 ****
 48 0
 3-21G
 ****


