%nproc=1
%NoSave
%Mem=1900MB
#P OB98/GEN NMR

erre ene a

0 1
  C     1092.676    -899.250    -515.141
  O     1092.113    -897.960    -515.032
  H     1092.773    -899.510    -516.197
  H     1092.024    -900.000    -514.664
  H     1093.662    -899.280    -514.664
  P     1091.776    -897.440    -513.555
  C     1089.302    -897.060    -514.287
  O     1090.473    -896.510    -513.675
  C     1088.642    -895.980    -515.156
  O     1088.154    -894.900    -514.313
  C     1089.585    -895.330    -516.152
  O     1089.796    -896.120    -517.313
  C     1088.817    -894.050    -516.478
  O     1087.824    -894.270    -517.504
  C     1088.160    -893.710    -515.130
  N     1088.841    -892.590    -514.471
  C     1088.703    -891.360    -515.065
  O     1088.065    -891.180    -516.127
  N     1089.366    -890.310    -514.488
  C     1090.169    -890.420    -513.389
  O     1090.780    -889.440    -512.933
  C     1090.301    -891.740    -512.786
  C     1089.628    -892.770    -513.343
  O     1092.960    -896.410    -513.250
  O     1091.690    -898.500    -512.511
  H     1093.590    -896.790    -512.626
  H     1087.443    -893.380    -517.681
  H     1089.283    -889.400    -514.916
  H     1090.943    -891.860    -511.914
  H     1089.722    -893.760    -512.933
  H     1087.104    -893.430    -515.281
  H     1089.485    -893.270    -516.839
  H     1090.529    -895.070    -515.662
  H     1087.790    -896.420    -515.667
  H     1088.603    -897.370    -513.503
  H     1089.584    -897.930    -514.875
  P     1091.181    -896.950    -517.401
  C     1091.385    -896.970    -520.030
  O     1091.162    -897.690    -518.820
  O     1090.905    -898.100    -516.329
  O     1092.393    -896.100    -517.132
  H     1089.951    -898.300    -516.229
  H     1091.331    -897.643    -520.860
  H     1092.353    -896.515    -520.001
  H     1090.638    -896.212    -520.137

 6  7  8  9  10  11  12  13  14  15  16  27  31  32  33  34  35 0
 6-311+G(2d,p)
 ****
 36  37 0
 6-311+G(2d,p)
 ****
 1  2  3  4  5  17  18  19  20  21  22  23  24  25 0
 3-21G
 ****
 26  28  29  30  38  39  40  41  42  43  44  45 0
 3-21G
 ****


