%nproc=1
%NoSave
%Mem=1900MB
#P OB98/GEN NMR

erre ene a

0 1
  C        6.580       4.348     467.340
  O        5.502       3.561     466.841
  P        4.037       4.230     466.871
  C        3.265       2.509     468.682
  O        3.405       3.868     468.300
  C        2.429       2.413     469.964
  O        3.189       2.919     471.091
  C        1.141       3.218     469.933
  O        0.124       2.500     469.257
  C        0.866       3.419     471.412
  O        0.249       2.247     471.992
  C        2.282       3.626     471.974
  N        2.912       7.500     475.164
  C        2.328       6.261     475.374
  N        1.881       6.007     476.632
  N        2.191       5.358     474.440
  C        2.660       5.760     473.239
  C        3.254       6.964     472.906
  C        3.447       7.927     473.954
  O        4.039       8.996     473.849
  N        3.582       7.010     471.575
  C        3.229       5.828     471.109
  N        2.683       5.015     472.098
  O        3.210       3.326     465.829
  O        3.997       5.688     466.520
  H        0.160       2.364     472.952
  H        3.165       3.764     464.959
  H        3.009       8.148     475.929
  H        3.367       5.492     470.095
  H        2.406       3.180     472.979
  H        0.188       4.256     471.607
  H        1.941       6.667     477.389
  H        1.307       4.195     469.449
  H        1.451       5.107     476.795
  H        2.224       1.352     470.154
  H        4.255       2.077     468.860
  H        2.776       1.951     467.860
  P       -1.119       3.337     468.672
  C       -2.763       2.055     470.230
  O       -2.270       3.305     469.777
  O       -1.682       2.394     467.507
  O       -0.756       4.696     468.155
  H       -1.998       2.949     466.768
  H       -3.096       2.155     471.271
  H       -1.985       1.275     470.177
  H       -3.611       1.758     469.604
  H        7.492       3.793     467.265
  H        6.397       4.595     468.365
  H        6.661       5.247     466.765

 3  4  5  6  7  8  9  10  11  12  23  26  30  31 0
 6-311+G(2d,p)
 ****
 33  35  36  37  38 0
 6-311+G(2d,p)
 ****
 1  2  13  14  15  16  17  18  19  20  21  22  24  25 0
 3-21G
 ****
 27  28  29  32  34  39  40  41  42  43  44  45  46  47  48  49 0
 3-21G
 ****


