%nproc=1
%NoSave
%Mem=1900MB
#P OB98/GEN NMR

erre ene a

0 1
  C       76.388    -479.812    -413.824
  O       75.725    -478.771    -414.508
  H       77.170    -480.217    -414.472
  H       75.680    -480.615    -413.594
  H       76.848    -479.450    -412.900
  P       74.721    -477.818    -413.695
  C       72.504    -478.889    -414.486
  O       73.367    -477.761    -414.558
  C       71.225    -478.623    -415.282
  O       70.591    -477.428    -414.739
  C       71.473    -478.379    -416.782
  O       70.363    -478.907    -417.520
  C       71.474    -476.868    -416.850
  O       71.236    -476.396    -418.158
  C       70.371    -476.527    -415.844
  N       70.420    -475.124    -415.450
  C       69.925    -474.200    -416.360
  O       69.466    -474.504    -417.464
  N       70.030    -472.884    -416.004
  C       70.678    -472.408    -414.892
  O       70.820    -471.220    -414.657
  C       71.237    -473.432    -413.988
  C       71.080    -474.724    -414.304
  O       75.264    -476.485    -413.295
  O       74.274    -478.697    -412.432
  H       70.328    -476.613    -418.432
  H       73.941    -478.126    -411.715
  H       69.664    -472.202    -416.645
  H       71.769    -473.094    -413.111
  H       71.489    -475.502    -413.670
  H       69.383    -476.749    -416.262
  H       72.440    -476.472    -416.525
  H       72.408    -478.832    -417.140
  H       70.528    -479.452    -415.124
  H       72.262    -479.057    -413.430
  H       73.020    -479.770    -414.881
  P       70.470    -480.283    -418.346
  C       69.873    -479.456    -420.701
  O       69.471    -480.266    -419.602
  O       70.363    -481.514    -417.497
  O       71.920    -480.225    -419.028
  H       72.366    -481.083    -418.912
  H       69.139    -479.518    -421.477
  H       70.815    -479.801    -421.073
  H       69.967    -478.440    -420.380

 6  7  8  9  10  11  12  13  14  15  16  26  31  32  33  34  35 0
 6-311+G(2d,p)
 ****
 36  37 0
 6-311+G(2d,p)
 ****
 1  2  3  4  5  17  18  19  20  21  22  23  24  25 0
 3-21G
 ****
 27  28  29  30  38  39  40  41  42  43  44  45 0
 3-21G
 ****


