%nproc=1
%NoSave
%Mem=1900MB
#P OB98/GEN NMR

erre ene a

0 1
  C      -20.886     -38.810      -2.727
  O      -20.559     -37.794      -3.650
  H      -21.444     -38.365      -1.898
  H      -19.973     -39.257      -2.328
  H      -21.506     -39.581      -3.190
  P      -19.989     -38.205      -5.090
  C      -21.183     -36.493      -6.609
  O      -19.972     -36.858      -5.961
  C      -21.977     -35.524      -5.731
  O      -21.117     -34.388      -5.411
  C      -23.244     -34.973      -6.417
  O      -24.252     -34.776      -5.420
  C      -22.751     -33.633      -6.928
  O      -23.809     -32.750      -7.199
  C      -21.836     -33.200      -5.785
  N      -20.950     -32.114      -6.190
  C      -21.194     -30.864      -5.633
  O      -22.109     -30.636      -4.842
  N      -20.392     -29.846      -6.072
  C      -19.468     -29.932      -7.071
  O      -18.834     -28.970      -7.479
  C      -19.290     -31.270      -7.662
  C      -20.022     -32.283      -7.197
  O      -20.656     -39.365      -5.751
  O      -18.429     -38.462      -4.838
  H      -24.215     -32.450      -6.365
  H      -18.059     -39.024      -5.547
  H      -20.551     -28.934      -5.670
  H      -18.577     -31.369      -8.467
  H      -19.931     -33.278      -7.621
  H      -22.423     -32.879      -4.915
  H      -22.183     -33.770      -7.854
  H      -23.622     -35.622      -7.210
  H      -22.223     -36.016      -4.784
  H      -21.767     -37.404      -6.781
  H      -20.954     -36.027      -7.573
  P      -25.720     -35.409      -5.566
  C      -26.093     -35.730      -3.046
  O      -26.588     -35.133      -4.240
  O      -25.730     -36.837      -6.009
  O      -26.436     -34.493      -6.669
  H      -26.894     -35.067      -7.313
  H      -26.740     -35.485      -2.230
  H      -25.109     -35.361      -2.844
  H      -26.057     -36.793      -3.167

 6  7  8  9  10  11  12  13  14  15  16  26  31  32  33  34  35 0
 6-311+G(2d,p)
 ****
 36  37 0
 6-311+G(2d,p)
 ****
 1  2  3  4  5  17  18  19  20  21  22  23  24  25 0
 3-21G
 ****
 27  28  29  30  38  39  40  41  42  43  44  45 0
 3-21G
 ****


