%nproc=1
%NoSave
%Mem=1900MB
#P OB98/GEN NMR

erre ene a

0 1
  C      513.465    -660.361     -50.408
  O      512.789    -659.214     -49.931
  H      514.535    -660.247     -50.204
  H      513.323    -660.457     -51.486
  H      513.099    -661.256     -49.900
  P      511.191    -659.249     -49.972
  C      509.391    -659.137     -51.882
  O      510.760    -659.305     -51.520
  C      509.238    -657.917     -52.793
  O      510.024    -658.060     -53.996
  C      507.822    -657.707     -53.310
  O      506.939    -657.262     -52.303
  C      508.083    -656.686     -54.405
  O      508.250    -655.371     -53.861
  C      509.418    -657.205     -54.994
  N      509.238    -657.902     -56.263
  C      508.602    -657.167     -57.276
  O      508.247    -656.007     -57.075
  N      508.364    -657.788     -58.487
  C      508.743    -659.010     -58.670
  N      508.469    -659.568     -59.879
  C      509.439    -659.808     -57.637
  C      509.641    -659.204     -56.470
  O      510.793    -657.754     -49.548
  O      510.549    -660.311     -49.143
  H      507.396    -655.134     -53.443
  H      511.234    -657.068     -50.087
  H      509.744    -660.829     -57.845
  H      510.144    -659.717     -55.655
  H      510.118    -656.370     -55.166
  H      507.259    -656.631     -55.116
  H      507.455    -658.622     -53.783
  H      509.605    -657.038     -52.244
  H      507.975    -658.995     -60.556
  H      508.758    -659.040     -50.995
  H      508.687    -660.522     -60.125
  H      509.076    -660.045     -52.411
  P      505.353    -657.397     -52.506
  C      503.509    -656.025     -53.671
  O      504.914    -656.178     -53.449
  O      504.561    -657.509     -51.244
  O      505.206    -658.657     -53.481
  H      505.649    -658.556     -54.345
  H      503.338    -655.185     -54.311
  H      503.015    -655.867     -52.735
  H      503.123    -656.909     -54.133

 6  7  8  9  10  11  12  13  14  15  16  26  30  31  32  33  35 0
 6-311+G(2d,p)
 ****
 37  38 0
 6-311+G(2d,p)
 ****
 1  2  3  4  5  17  18  19  20  21  22  23  24  25 0
 3-21G
 ****
 27  28  29  34  36  39  40  41  42  43  44  45  46 0
 3-21G
 ****


