%nproc=1
%NoSave
%Mem=1900MB
#P OB98/GEN NMR

erre ene a

0 1
  C       37.542     122.011     -93.629
  O       37.817     121.527     -92.332
  H       37.996     121.336     -94.358
  H       37.972     123.007     -93.756
  H       36.464     122.045     -93.803
  P       37.216     122.359     -91.096
  C       34.621     122.456     -91.273
  O       35.760     121.725     -90.838
  C       33.541     121.503     -91.793
  O       34.080     120.730     -92.893
  C       33.039     120.521     -90.734
  O       31.616     120.415     -90.824
  C       33.700     119.206     -91.102
  O       32.951     118.078     -90.652
  C       33.844     119.335     -92.623
  N       34.930     118.504     -93.139
  C       34.801     118.043     -94.452
  O       33.800     118.329     -95.113
  N       35.774     117.226     -94.967
  C       36.763     116.852     -94.217
  N       37.686     116.024     -94.779
  C       36.916     117.275     -92.811
  C       35.977     118.096     -92.344
  O       36.897     123.784     -91.745
  O       38.089     122.423     -89.887
  H       33.384     117.268     -91.002
  H       36.720     124.465     -91.052
  H       37.749     116.923     -92.221
  H       36.006     118.456     -91.321
  H       32.911     119.047     -93.127
  H       34.692     119.156     -90.636
  H       33.305     120.817     -89.719
  H       32.720     122.101     -92.204
  H       37.543     115.747     -95.740
  H       34.922     123.140     -92.072
  H       38.478     115.647     -94.279
  H       34.224     123.035     -90.434
  P       30.783     121.116     -89.644
  C       29.872     122.937     -91.249
  O       29.561     121.909     -90.320
  O       31.760     122.276     -89.135
  O       30.393     120.178     -88.550
  H       32.230     121.996     -88.328
  H       28.966     123.373     -91.615
  H       30.424     122.523     -92.067
  H       30.460     123.689     -90.765

 6  7  8  9  10  11  12  13  14  15  16  26  30  31  32  33  35 0
 6-311+G(2d,p)
 ****
 37  38 0
 6-311+G(2d,p)
 ****
 1  2  3  4  5  17  18  19  20  21  22  23  24  25 0
 3-21G
 ****
 27  28  29  34  36  39  40  41  42  43  44  45  46 0
 3-21G
 ****


