%nproc=1
%NoSave
%Mem=1900MB
#P OB98/GEN NMR

erre ene a

0 1
  C     -111.807    -245.409    -106.736
  O     -112.100    -246.544    -107.541
  P     -111.236    -246.867    -108.846
  C     -112.371    -249.231    -108.922
  O     -111.918    -248.088    -109.614
  C     -113.261    -250.059    -109.863
  O     -114.513    -249.382    -110.088
  C     -112.593    -250.280    -111.218
  O     -111.909    -251.520    -111.242
  C     -113.766    -250.219    -112.181
  O     -114.449    -251.483    -112.217
  C     -114.657    -249.143    -111.517
  N     -114.343    -247.724    -111.773
  C     -114.982    -247.053    -112.814
  O     -115.833    -247.566    -113.533
  N     -114.583    -245.753    -113.017
  C     -113.667    -245.073    -112.270
  O     -113.148    -244.011    -112.606
  C     -113.238    -245.739    -111.039
  C     -113.570    -247.018    -110.860
  O     -109.899    -247.506    -108.246
  O     -110.946    -245.698    -109.734
  H     -115.137    -251.415    -112.906
  H     -109.188    -246.843    -108.203
  H     -114.941    -245.306    -113.859
  H     -112.619    -245.182    -110.340
  H     -113.233    -247.544    -109.970
  H     -115.709    -249.289    -111.777
  H     -113.429    -250.021    -113.197
  H     -111.908    -249.449    -111.441
  H     -113.484    -251.023    -109.384
  H     -112.932    -248.935    -108.032
  H     -111.519    -249.832    -108.586
  P     -110.776    -251.779    -112.343
  C     -110.857    -254.279    -111.775
  O     -110.970    -253.307    -112.797
  O     -109.387    -251.399    -111.945
  O     -111.286    -250.927    -113.599
  H     -110.830    -250.060    -113.623
  H     -111.185    -255.243    -112.171
  H     -111.483    -254.014    -110.921
  H     -109.810    -254.362    -111.458
  H     -112.493    -245.367    -105.916
  H     -111.901    -244.520    -107.325
  H     -110.807    -245.485    -106.362

 3  4  5  6  7  8  9  10  11  12  13  23  28  29  30  31  32 0
 6-311+G(2d,p)
 ****
 33  34 0
 6-311+G(2d,p)
 ****
 1  2  14  15  16  17  18  19  20  21  22  24  25  26  27 0
 3-21G
 ****
 35  36  37  38  39  40  41  42  43  44  45 0
 3-21G
 ****


