%nproc=1
%NoSave
%Mem=1900MB
#P OB98/GEN NMR

erre ene a

0 1
  C      600.802     359.886    -362.293
  O      599.946     360.376    -363.332
  P      598.416     360.720    -362.973
  C      598.540     363.296    -362.839
  O      598.080     362.162    -363.577
  C      598.828     364.476    -363.771
  O      600.070     364.284    -364.501
  C      597.749     364.692    -364.816
  O      596.590     365.289    -364.240
  C      598.491     365.582    -365.824
  O      598.481     366.948    -365.394
  C      599.935     365.001    -365.739
  N      600.289     364.180    -366.880
  C      600.339     364.821    -368.118
  O      600.050     366.018    -368.223
  N      600.704     364.090    -369.230
  C      600.966     362.818    -369.108
  N      601.317     362.140    -370.243
  C      600.920     362.098    -367.829
  C      600.560     362.826    -366.763
  O      598.013     360.509    -361.552
  O      597.601     359.739    -363.964
  H      599.022     367.428    -366.044
  H      596.763     359.500    -363.543
  H      601.155     361.056    -367.768
  H      600.493     362.381    -365.784
  H      600.656     365.830    -365.691
  H      598.041     365.530    -366.813
  H      597.496     363.728    -365.280
  H      598.931     365.383    -363.145
  H      601.338     362.667    -371.117
  H      599.428     363.032    -362.274
  H      601.590     361.174    -370.245
  H      597.763     363.553    -362.093
  P      595.249     365.288    -365.123
  C      593.772     363.899    -363.503
  O      594.014     365.153    -364.115
  O      595.284     363.847    -365.855
  O      595.165     366.393    -366.118
  H      594.894     363.922    -366.732
  H      593.120     364.059    -362.633
  H      594.708     363.460    -363.128
  H      593.291     363.211    -364.201
  H      601.779     359.707    -362.691
  H      600.403     358.973    -361.903
  H      600.864     360.612    -361.509

 3  4  5  6  7  8  9  10  11  12  13  23  27  28  29  30  32 0
 6-311+G(2d,p)
 ****
 34  35 0
 6-311+G(2d,p)
 ****
 1  2  14  15  16  17  18  19  20  21  22  24  25  26 0
 3-21G
 ****
 31  33  36  37  38  39  40  41  42  43  44  45  46 0
 3-21G
 ****


