%nproc=1
%NoSave
%Mem=1900MB
#P OB98/GEN NMR

erre ene a

0 1
  C     -377.801    -199.135     536.152
  O     -378.292    -198.205     537.100
  H     -378.656    -199.632     535.677
  H     -377.185    -199.898     536.633
  H     -377.223    -198.619     535.384
  P     -377.233    -197.458     538.044
  C     -377.759    -199.118     539.969
  O     -376.762    -198.554     539.116
  C     -377.149    -200.204     540.851
  O     -376.725    -201.320     540.043
  C     -375.906    -199.734     541.607
  O     -376.257    -198.911     542.702
  C     -375.271    -201.068     541.957
  O     -375.896    -201.653     543.102
  C     -375.549    -201.890     540.679
  N     -374.419    -201.917     539.756
  C     -373.150    -202.064     540.338
  O     -373.037    -202.179     541.556
  N     -372.056    -202.062     539.512
  C     -372.198    -201.940     538.231
  N     -371.065    -201.947     537.474
  C     -373.518    -201.792     537.581
  C     -374.571    -201.783     538.396
  O     -377.666    -196.155     538.646
  O     -375.946    -197.289     537.104
  H     -375.399    -202.473     543.286
  H     -375.987    -196.447     536.615
  H     -373.587    -201.700     536.497
  H     -375.576    -201.683     537.996
  H     -375.806    -202.926     540.942
  H     -374.211    -200.951     542.182
  H     -375.225    -199.197     540.916
  H     -377.920    -200.557     541.548
  H     -370.186    -202.038     537.965
  H     -378.533    -199.546     539.320
  H     -371.066    -201.946     536.462
  H     -378.220    -198.338     540.590
  P     -375.533    -197.501     542.929
  C     -373.853    -198.516     544.613
  O     -374.023    -197.857     543.349
  O     -376.246    -196.551     543.837
  O     -375.364    -196.931     541.431
  H     -376.220    -196.618     541.059
  H     -372.813    -198.700     544.782
  H     -374.383    -199.445     544.605
  H     -374.237    -197.894     545.394

 6  7  8  9  10  11  12  13  14  15  16  26  30  31  32  33  35 0
 6-311+G(2d,p)
 ****
 37  38 0
 6-311+G(2d,p)
 ****
 1  2  3  4  5  17  18  19  20  21  22  23  24  25 0
 3-21G
 ****
 27  28  29  34  36  39  40  41  42  43  44  45  46 0
 3-21G
 ****


