%nproc=1
%NoSave
%Mem=1900MB
#P OB98/GEN NMR

erre ene a

0 1
  C      152.473      21.798     -40.826
  O      153.841      22.022     -40.479
  P      154.987      21.017     -40.981
  C      155.135      19.204     -39.180
  O      154.639      19.531     -40.474
  C      155.835      17.841     -39.123
  O      154.874      16.760     -39.204
  C      156.872      17.605     -40.225
  O      157.891      16.792     -39.635
  C      156.079      16.817     -41.251
  O      156.910      16.115     -42.165
  C      155.210      15.941     -40.338
  N      154.021      15.440     -41.019
  C      154.196      14.360     -41.886
  O      155.322      13.908     -42.096
  N      153.099      13.848     -42.535
  C      151.947      14.429     -42.403
  N      150.903      13.892     -43.090
  C      151.734      15.626     -41.566
  C      152.801      16.064     -40.901
  O      156.382      21.462     -40.687
  O      154.749      20.928     -42.565
  H      157.315      16.767     -42.777
  H      155.602      20.763     -43.009
  H      150.761      16.091     -41.507
  H      152.746      16.932     -40.256
  H      155.784      15.082     -39.969
  H      155.449      17.499     -41.833
  H      157.294      18.526     -40.631
  H      156.315      17.763     -38.140
  H      151.097      13.087     -43.673
  H      154.295      19.205     -38.478
  H      149.995      14.329     -43.149
  H      155.825      19.990     -38.855
  P      158.968      17.389     -38.613
  C      160.924      17.590     -40.247
  O      159.972      18.291     -39.471
  O      159.633      16.376     -37.739
  O      158.158      18.464     -37.741
  H      158.657      18.662     -36.929
  H      161.401      18.287     -40.940
  H      160.445      16.790     -40.821
  H      161.688      17.159     -39.594
  H      151.866      22.570     -40.401
  H      152.160      20.848     -40.446
  H      152.369      21.808     -41.891

 3  4  5  6  7  8  9  10  11  12  13  23  27  28  29  30  32 0
 6-311+G(2d,p)
 ****
 34  35 0
 6-311+G(2d,p)
 ****
 1  2  14  15  16  17  18  19  20  21  22  24  25  26 0
 3-21G
 ****
 31  33  36  37  38  39  40  41  42  43  44  45  46 0
 3-21G
 ****


