%nproc=1
%NoSave
%Mem=1900MB
#P OB98/GEN NMR

erre ene a

0 1
  C      453.016     301.888     679.212
  O      453.540     302.733     678.188
  P      453.286     304.312     678.298
  C      451.382     304.525     676.467
  O      452.673     304.858     676.927
  C      451.150     305.160     675.088
  O      451.206     306.602     675.187
  C      452.191     304.748     674.049
  O      451.843     303.539     673.402
  C      452.207     305.951     673.129
  O      451.072     305.918     672.244
  C      452.079     307.112     674.140
  N      453.311     307.635     674.763
  C      454.196     308.406     674.013
  O      454.030     308.694     672.834
  N      455.308     308.858     674.680
  C      455.535     308.781     676.021
  O      456.523     309.259     676.566
  C      454.501     308.085     676.792
  C      453.465     307.541     676.141
  O      454.757     304.932     678.331
  O      452.476     304.729     679.486
  H      450.930     304.989     671.984
  H      454.925     305.366     679.189
  H      455.991     309.364     674.130
  H      454.621     308.033     677.864
  H      452.693     307.025     676.709
  H      451.572     307.967     673.677
  H      453.090     305.945     672.485
  H      453.180     304.668     674.516
  H      450.150     304.884     674.741
  H      450.619     304.869     677.171
  H      451.285     303.434     676.403
  P      452.425     302.147     673.944
  C      454.573     302.495     672.582
  O      453.460     301.648     672.820
  O      451.418     301.137     674.380
  O      453.396     302.586     675.139
  H      452.925     302.522     676.009
  H      455.275     301.976     671.926
  H      455.075     302.738     673.521
  H      454.242     303.412     672.084
  H      453.267     300.870     678.998
  H      451.952     301.992     679.251
  H      453.436     302.168     680.155

 3  4  5  6  7  8  9  10  11  12  13  23  28  29  30  31  32 0
 6-311+G(2d,p)
 ****
 33  34 0
 6-311+G(2d,p)
 ****
 1  2  14  15  16  17  18  19  20  21  22  24  25  26  27 0
 3-21G
 ****
 35  36  37  38  39  40  41  42  43  44  45 0
 3-21G
 ****


