%nproc=1
%NoSave
%Mem=1900MB
#P OB98/GEN NMR

erre ene a

0 1
  C     -233.888       2.740     -92.447
  O     -233.418       2.106     -91.277
  H     -233.518       3.767     -92.464
  H     -234.980       2.764     -92.447
  H     -233.526       2.220     -93.339
  P     -233.710       0.536     -91.119
  C     -231.507      -0.202     -92.281
  O     -232.927      -0.200     -92.314
  C     -230.980      -1.627     -92.093
  O     -231.330      -2.410     -93.264
  C     -229.464      -1.700     -91.913
  O     -229.166      -2.715     -90.950
  C     -228.957      -2.136     -93.276
  O     -227.698      -2.803     -93.212
  C     -230.120      -3.005     -93.773
  N     -230.133      -3.094     -95.232
  C     -229.280      -4.036     -95.811
  O     -228.554      -4.735     -95.103
  N     -229.219      -4.126     -97.179
  C     -229.891      -3.288     -97.907
  N     -229.767      -3.407     -99.257
  C     -230.753      -2.234     -97.339
  C     -230.833      -2.200     -96.009
  O     -235.244       0.399     -91.549
  O     -233.445      -0.030     -89.764
  H     -227.073      -2.229     -92.719
  H     -235.684      -0.324     -91.063
  H     -231.271      -1.541     -97.987
  H     -231.436      -1.454     -95.500
  H     -230.049      -4.019     -93.359
  H     -228.840      -1.255     -93.922
  H     -229.020      -0.754     -91.589
  H     -231.499      -2.079     -91.239
  H     -229.150      -4.133     -99.609
  H     -231.171       0.414     -91.440
  H     -230.206      -2.782     -99.918
  H     -231.121       0.229     -93.209
  P     -227.979      -2.408     -89.917
  C     -229.451      -1.277     -88.100
  O     -228.394      -1.131     -89.042
  O     -226.805      -1.858     -90.858
  O     -227.543      -3.600     -89.131
  H     -226.093      -2.520     -90.924
  H     -229.611      -0.346     -87.597
  H     -229.190      -2.029     -87.385
  H     -230.346      -1.565     -88.610

 6  7  8  9  10  11  12  13  14  15  16  26  30  31  32  33  35 0
 6-311+G(2d,p)
 ****
 37  38 0
 6-311+G(2d,p)
 ****
 1  2  3  4  5  17  18  19  20  21  22  23  24  25 0
 3-21G
 ****
 27  28  29  34  36  39  40  41  42  43  44  45  46 0
 3-21G
 ****


