%nproc=1
%NoSave
%Mem=1900MB
#P OB98/GEN NMR

erre ene a

0 1
  C      435.701     203.982    -340.614
  O      434.429     204.036    -339.997
  H      435.704     203.157    -341.331
  H      436.475     203.792    -339.865
  H      435.914     204.911    -341.147
  P      434.121     205.224    -338.965
  C      433.777     207.172    -340.608
  O      433.150     206.254    -339.723
  C      432.811     208.291    -340.998
  O      433.539     209.296    -341.745
  C      431.638     207.817    -341.862
  O      430.468     208.540    -341.475
  C      432.048     208.225    -343.264
  O      430.924     208.432    -344.121
  C      432.857     209.492    -343.001
  N      433.461     211.700    -347.505
  C      432.374     211.697    -346.651
  N      431.273     212.360    -347.066
  N      432.366     211.094    -345.492
  C      433.541     210.481    -345.194
  C      434.685     210.412    -345.954
  C      434.677     211.073    -347.243
  O      435.602     211.097    -348.048
  N      435.657     209.677    -345.323
  C      435.099     209.301    -344.187
  N      433.813     209.756    -344.067
  O      435.321     205.855    -338.337
  O      433.164     204.552    -337.875
  H      430.244     208.899    -343.591
  H      433.666     204.317    -337.074
  H      433.410     212.173    -348.389
  H      435.575     208.699    -343.422
  H      432.222     210.382    -342.914
  H      432.678     207.442    -343.708
  H      431.213     212.861    -347.940
  H      431.455     206.740    -341.781
  H      430.472     212.390    -346.446
  H      432.452     208.774    -340.078
  H      434.089     206.626    -341.505
  H      434.665     207.594    -340.123
  P      429.363     207.798    -340.582
  C      429.959     208.409    -338.147
  O      429.113     208.678    -339.260
  O      429.593     206.344    -340.342
  O      428.010     208.042    -341.417
  H      427.404     207.288    -341.262
  H      429.696     209.054    -337.335
  H      430.978     208.581    -338.424
  H      429.839     207.389    -337.846

 6  7  8  9  10  11  12  13  14  15  26  29  33  34 0
 6-311+G(2d,p)
 ****
 36  38  39  40  41 0
 6-311+G(2d,p)
 ****
 1  2  3  4  5  16  17  18  19  20  21  22  23  24  25 0
 3-21G
 ****
 27  28  30  31  32  35  37  42  43  44  45  46  47 0
 3-21G
 ****
 48  49 0
 3-21G
 ****


