%nproc=1
%NoSave
%Mem=1900MB
#P OB98/GEN NMR

erre ene a

0 1
  C       -3.504    -264.912      71.084
  O       -3.849    -265.714      69.973
  H       -4.330    -264.930      71.799
  H       -3.330    -263.877      70.777
  H       -2.611    -265.310      71.573
  P       -2.875    -265.732      68.701
  C       -3.660    -268.126      68.169
  O       -3.485    -266.806      67.676
  C       -4.638    -268.909      67.291
  O       -5.961    -268.323      67.437
  C       -4.270    -268.896      65.803
  O       -4.591    -270.175      65.251
  C       -5.190    -267.830      65.244
  O       -5.410    -268.007      63.858
  C       -6.438    -267.978      66.124
  N       -7.226    -266.747      66.132
  C       -8.235    -266.645      65.166
  O       -8.431    -267.568      64.374
  N       -8.949    -265.480      65.075
  C       -8.650    -264.479      65.842
  N       -9.374    -263.339      65.672
  C       -7.577    -264.532      66.857
  C       -6.916    -265.682      66.947
  O       -1.420    -265.901      68.988
  O       -3.170    -264.333      67.979
  H       -5.976    -267.280      63.523
  H       -2.564    -263.648      68.316
  H       -7.364    -263.667      67.466
  H       -6.103    -265.809      67.656
  H       -7.070    -268.800      65.766
  H       -4.740    -266.841      65.390
  H       -3.217    -268.663      65.624
  H       -4.704    -269.935      67.673
  H      -10.083    -263.342      64.949
  H       -4.060    -268.054      69.188
  H       -9.206    -262.485      66.180
  H       -2.694    -268.641      68.206
  P       -3.430    -271.153      64.728
  C       -4.555    -273.370      65.333
  O       -4.086    -272.549      64.271
  O       -2.264    -271.291      65.653
  O       -2.969    -270.493      63.340
  H       -2.025    -270.690      63.188
  H       -4.971    -274.270      64.931
  H       -5.307    -272.845      65.885
  H       -3.740    -273.613      65.983

 6  7  8  9  10  11  12  13  14  15  16  26  30  31  32  33  35 0
 6-311+G(2d,p)
 ****
 37  38 0
 6-311+G(2d,p)
 ****
 1  2  3  4  5  17  18  19  20  21  22  23  24  25 0
 3-21G
 ****
 27  28  29  34  36  39  40  41  42  43  44  45  46 0
 3-21G
 ****


