%nproc=1
%NoSave
%Mem=1900MB
#P OB98/GEN NMR

erre ene a

0 1
  C      650.612    -140.134     138.303
  O      651.147    -140.417     139.603
  P      651.227    -141.947     140.067
  C      653.828    -141.999     140.146
  O      652.641    -142.550     139.594
  C      654.819    -143.117     140.498
  O      654.421    -143.819     141.696
  C      654.945    -144.187     139.428
  O      655.828    -143.791     138.384
  C      655.552    -145.336     140.224
  O      656.970    -145.121     140.374
  C      654.849    -145.201     141.574
  N      653.219    -149.931     142.659
  C      654.458    -149.405     142.573
  N      654.812    -148.140     142.260
  C      653.726    -147.385     142.041
  C      652.398    -147.783     142.092
  C      652.156    -149.128     142.424
  N      650.888    -149.662     142.510
  N      651.560    -146.734     141.799
  C      652.361    -145.711     141.582
  N      653.681    -146.056     141.712
  O      650.179    -142.675     139.099
  O      650.889    -142.164     141.503
  H      657.079    -144.287     140.868
  H      649.744    -143.408     139.577
  H      655.279    -150.086     142.778
  H      652.034    -144.705     141.339
  H      655.510    -145.421     142.420
  H      655.427    -146.298     139.730
  H      653.957    -144.478     139.037
  H      655.804    -142.657     140.675
  H      653.599    -141.408     141.032
  H      650.798    -150.628     142.780
  H      650.100    -149.060     142.356
  H      654.271    -141.308     139.415
  P      655.341    -144.020     136.876
  C      655.547    -141.457     136.543
  O      654.761    -142.611     136.381
  O      654.038    -144.946     137.056
  O      656.360    -144.656     135.990
  H      653.930    -145.525     136.278
  H      655.152    -140.665     135.902
  H      656.590    -141.647     136.268
  H      655.503    -141.117     137.585
  H      650.622    -139.077     138.135
  H      649.606    -140.495     138.245
  H      651.208    -140.619     137.559

 3  4  5  6  7  8  9  10  11  12  22  25  29  30  31  32 0
 6-311+G(2d,p)
 ****
 33  36  37 0
 6-311+G(2d,p)
 ****
 1  2  13  14  15  16  17  18  19  20  21  23  24  26 0
 3-21G
 ****
 27  28  34  35  38  39  40  41  42  43  44  45  46  47  48 0
 3-21G
 ****


