%nproc=1
%NoSave
%Mem=1900MB
#P OB98/GEN NMR

erre ene a

0 1
  C     -247.731    -904.715    -292.542
  O     -247.652    -905.072    -293.930
  P     -247.070    -906.524    -294.296
  C     -244.580    -905.861    -294.712
  O     -245.807    -906.325    -295.269
  C     -243.391    -906.393    -295.517
  O     -243.171    -907.796    -295.295
  C     -243.551    -906.245    -297.026
  O     -243.219    -904.936    -297.457
  C     -242.533    -907.244    -297.533
  O     -241.209    -906.673    -297.482
  C     -242.662    -908.384    -296.511
  N     -242.980    -912.816    -299.057
  C     -241.945    -911.975    -298.842
  N     -241.936    -910.804    -298.168
  C     -243.166    -910.540    -297.673
  C     -244.308    -911.303    -297.815
  C     -244.187    -912.497    -298.543
  N     -245.246    -913.360    -298.755
  N     -245.376    -910.709    -297.175
  C     -244.878    -909.608    -296.652
  N     -243.544    -909.459    -296.934
  O     -248.188    -907.121    -295.274
  O     -246.844    -907.400    -293.108
  H     -241.163    -906.003    -298.187
  H     -248.255    -908.091    -295.136
  H     -240.994    -912.278    -299.271
  H     -245.435    -908.889    -296.066
  H     -241.693    -908.833    -296.273
  H     -242.710    -907.537    -298.573
  H     -244.563    -906.536    -297.344
  H     -242.492    -905.860    -295.192
  H     -244.497    -906.174    -293.675
  H     -245.073    -914.210    -299.264
  H     -246.143    -913.134    -298.351
  H     -244.586    -904.766    -294.699
  P     -244.388    -903.828    -297.430
  C     -244.785    -904.009    -299.996
  O     -244.403    -903.186    -298.901
  O     -243.765    -902.675    -296.512
  O     -245.693    -904.326    -296.912
  H     -244.481    -902.198    -296.037
  H     -245.042    -903.356    -300.839
  H     -245.665    -904.602    -299.744
  H     -243.958    -904.651    -300.285
  H     -248.134    -903.728    -292.450
  H     -246.752    -904.742    -292.111
  H     -248.365    -905.409    -292.031

 3  4  5  6  7  8  9  10  11  12  22  25  29  30  31  32 0
 6-311+G(2d,p)
 ****
 33  36  37 0
 6-311+G(2d,p)
 ****
 1  2  13  14  15  16  17  18  19  20  21  23  24  26 0
 3-21G
 ****
 27  28  34  35  38  39  40  41  42  43  44  45  46  47  48 0
 3-21G
 ****


