%nproc=1
%NoSave
%Mem=1900MB
#P OB98/GEN NMR

erre ene a

0 1
  C      296.719    -269.029     224.751
  O      295.992    -269.977     225.544
  P      296.347    -270.128     227.105
  C      293.885    -270.249     227.977
  O      295.143    -270.891     227.836
  C      292.789    -271.282     228.257
  O      292.482    -272.033     227.057
  C      293.164    -272.332     229.293
  O      293.090    -271.820     230.614
  C      292.141    -273.419     229.010
  O      290.888    -273.130     229.652
  C      291.999    -273.325     227.475
  N      292.691    -274.406     226.778
  C      291.905    -275.467     226.337
  O      290.698    -275.550     226.559
  N      292.566    -276.453     225.656
  C      293.916    -276.517     225.441
  O      294.450    -277.441     224.837
  C      294.703    -275.411     225.997
  C      294.070    -274.428     226.639
  O      296.158    -268.627     227.635
  O      297.723    -270.629     227.409
  H      290.249    -273.799     229.329
  H      296.738    -268.475     228.408
  H      292.013    -277.217     225.298
  H      295.776    -275.436     225.875
  H      294.632    -273.599     227.060
  H      290.941    -273.354     227.191
  H      292.460    -274.403     229.366
  H      294.169    -272.719     229.087
  H      291.877    -270.741     228.564
  H      293.645    -269.716     227.053
  H      293.943    -269.520     228.797
  P      294.467    -271.755     231.442
  C      293.326    -270.220     233.231
  O      294.038    -271.409     232.948
  O      295.103    -270.406     230.870
  O      295.320    -272.971     231.260
  H      294.425    -269.740     230.650
  H      292.657    -269.950     232.412
  H      294.043    -269.411     233.411
  H      292.732    -270.378     234.139
  H      296.360    -269.057     223.744
  H      297.760    -269.276     224.765
  H      296.580    -268.047     225.152

 3  4  5  6  7  8  9  10  11  12  13  23  28  29  30  31  32 0
 6-311+G(2d,p)
 ****
 33  34 0
 6-311+G(2d,p)
 ****
 1  2  14  15  16  17  18  19  20  21  22  24  25  26 0
 3-21G
 ****
 27  35  36  37  38  39  40  41  42  43  44  45 0
 3-21G
 ****


