%nproc=1
%NoSave
%Mem=1900MB
#P OB98/GEN NMR

erre ene a

0 1
  C       12.551      -5.263    -188.376
  O       11.850      -4.436    -187.435
  P       12.395      -4.417    -185.926
  C       10.218      -4.687    -184.510
  O       11.246      -3.817    -184.981
  C        8.846      -4.040    -184.723
  O        8.362      -4.279    -186.055
  C        7.772      -4.599    -183.797
  O        7.891      -4.051    -182.497
  C        6.494      -4.198    -184.520
  O        6.029      -2.906    -184.099
  C        6.922      -4.170    -186.009
  N        6.288      -5.215    -186.796
  C        5.186      -4.818    -187.568
  O        4.798      -3.647    -187.532
  N        4.543      -5.762    -188.331
  C        4.949      -6.992    -188.312
  N        4.269      -7.882    -189.088
  C        6.088      -7.460    -187.490
  C        6.703      -6.531    -186.762
  O       13.501      -3.259    -185.948
  O       12.970      -5.721    -185.472
  H        5.216      -2.733    -184.616
  H       14.219      -3.469    -185.324
  H        6.384      -8.502    -187.498
  H        7.548      -6.785    -186.126
  H        6.666      -3.204    -186.461
  H        5.679      -4.909    -184.319
  H        7.848      -5.697    -183.758
  H        8.943      -2.954    -184.573
  H        3.491      -7.527    -189.631
  H       10.367      -4.907    -183.450
  H        4.496      -8.871    -189.140
  H       10.293      -5.640    -185.046
  P        7.749      -5.037    -181.251
  C        5.704      -3.861    -180.221
  O        7.084      -4.152    -180.087
  O        9.272      -5.164    -180.744
  O        7.135      -6.377    -181.499
  H        9.332      -5.827    -180.033
  H        5.343      -3.438    -179.280
  H        5.145      -4.770    -180.440
  H        5.560      -3.119    -181.017
  H       12.086      -5.183    -189.337
  H       12.520      -6.281    -188.048
  H       13.569      -4.941    -188.444

 3  4  5  6  7  8  9  10  11  12  13  21  23  27  28  29  30  32 0
 6-311+G(2d,p)
 ****
 34  35 0
 6-311+G(2d,p)
 ****
 1  2  14  15  16  17  18  19  20  22  24  25  26 0
 3-21G
 ****
 31  33  36  37  38  39  40  41  42  43  44  45  46 0
 3-21G
 ****


