%nproc=1
%NoSave
%Mem=1900MB
#P OB98/GEN NMR

erre ene a

0 1
  C      926.569     544.210    -492.686
  O      927.281     543.896    -493.892
  P      926.556     543.012    -495.018
  C      927.395     543.924    -497.321
  O      927.478     542.910    -496.331
  C      928.233     545.151    -496.942
  O      929.520     544.730    -496.408
  C      928.522     546.100    -498.107
  O      928.575     547.438    -497.560
  C      929.905     545.665    -498.558
  O      930.587     546.650    -499.313
  C      930.541     545.369    -497.197
  N      931.733     544.521    -497.268
  C      932.973     545.157    -497.381
  O      933.126     546.368    -497.490
  N      934.069     544.320    -497.410
  C      934.040     542.945    -497.368
  O      935.055     542.263    -497.428
  C      932.709     542.340    -497.278
  C      931.641     543.143    -497.228
  O      925.382     543.987    -495.507
  O      925.981     541.713    -494.538
  H      931.486     546.309    -499.495
  H      924.547     543.497    -495.565
  H      934.963     544.759    -497.477
  H      932.649     541.265    -497.230
  H      930.647     542.710    -497.146
  H      930.796     546.304    -496.696
  H      929.815     544.768    -499.185
  H      927.773     546.060    -498.902
  H      927.705     545.679    -496.134
  H      926.341     544.226    -497.434
  H      927.731     543.510    -498.283
  P      927.746     548.599    -498.303
  C      928.185     550.507    -496.566
  O      928.402     549.990    -497.856
  O      926.387     548.564    -497.445
  O      927.535     548.384    -499.756
  H      926.541     548.503    -496.487
  H      928.240     549.728    -495.804
  H      927.225     550.999    -496.522
  H      928.966     551.242    -496.348
  H      927.192     544.801    -492.048
  H      926.301     543.304    -492.184
  H      925.683     544.759    -492.928

 3  4  5  6  7  8  9  10  11  12  13  23  28  29  30  31  32 0
 6-311+G(2d,p)
 ****
 33  34 0
 6-311+G(2d,p)
 ****
 1  2  14  15  16  17  18  19  20  21  22  24  25  26 0
 3-21G
 ****
 27  35  36  37  38  39  40  41  42  43  44  45 0
 3-21G
 ****


