%nproc=1
%NoSave
%Mem=1900MB
#P OB98/GEN NMR

erre ene a

0 1
  C     -107.636    -563.739     416.559
  O     -106.653    -564.148     415.602
  P     -106.788    -563.527     414.128
  C     -104.389    -562.492     414.075
  O     -105.806    -562.269     414.043
  C     -103.640    -561.185     414.330
  O     -104.019    -560.600     415.589
  C     -102.131    -561.339     414.414
  O     -101.531    -561.408     413.116
  C     -101.727    -560.046     415.104
  O     -101.659    -558.986     414.136
  C     -102.901    -559.810     416.069
  N      -99.673    -559.267     419.947
  C      -99.653    -558.697     418.691
  N      -98.622    -557.847     418.429
  N     -100.531    -558.937     417.764
  C     -101.522    -559.798     418.169
  C     -101.639    -560.441     419.390
  C     -100.642    -560.174     420.393
  O     -100.592    -560.679     421.526
  N     -102.790    -561.218     419.430
  C     -103.332    -561.042     418.258
  N     -102.595    -560.204     417.446
  O     -108.246    -562.860     414.135
  O     -106.649    -564.537     413.033
  H     -101.064    -559.281     413.422
  H     -108.623    -562.824     413.233
  H      -98.941    -559.045     420.626
  H     -104.260    -561.495     417.936
  H     -103.224    -558.753     416.081
  H     -100.745    -560.103     415.581
  H      -97.947    -557.555     419.105
  H     -101.842    -562.209     415.031
  H      -98.613    -557.398     417.515
  H     -103.897    -560.476     413.537
  H     -104.063    -562.919     413.118
  H     -104.162    -563.237     414.849
  P     -101.265    -562.890     412.504
  C     -102.947    -562.467     410.559
  O     -102.592    -563.262     411.671
  O     -101.329    -563.829     413.810
  O      -99.974    -563.037     411.768
  H     -100.775    -564.607     413.698
  H     -102.080    -562.206     409.950
  H     -103.433    -561.529     410.920
  H     -103.665    -563.004     409.951
  H     -107.441    -564.217     417.497
  H     -108.609    -564.018     416.212
  H     -107.592    -562.677     416.684

 3  4  5  6  7  8  9  10  11  12  23  26  30  31  33  0
 6-311+G(2d,p)
 ****
 35  36  37  38 0
 6-311+G(2d,p)
 ****
 1  2  13  14  15  16  17  18  19  20  21  22  24  25  27  28  29 0
 3-21G
 ****
 32  34  39  40  41  42  43  44  45  46  47  48  49 0
 3-21G
 ****


