%nproc=1
%NoSave
%Mem=1900MB
#P OB98/GEN NMR

erre ene a

0 1
  C     -356.605     400.276     713.964
  O     -355.749     400.199     715.089
  H     -356.164     399.685     713.149
  H     -356.713     401.315     713.628
  H     -357.582     399.858     714.210
  P     -356.072     401.104     716.373
  C     -354.778     403.225     715.665
  O     -356.068     402.634     715.862
  C     -354.906     404.756     715.548
  O     -353.598     405.342     715.754
  C     -355.423     405.216     714.173
  O     -356.276     406.348     714.370
  C     -354.160     405.630     713.454
  O     -354.408     406.556     712.419
  C     -353.290     406.161     714.611
  N     -351.863     406.108     714.268
  C     -351.360     407.205     713.558
  O     -352.097     408.160     713.278
  N     -350.060     407.197     713.134
  C     -349.327     406.136     713.347
  N     -348.056     406.155     712.870
  C     -349.834     404.940     714.063
  C     -351.098     404.991     714.491
  O     -355.246     400.848     717.589
  O     -357.629     400.827     716.647
  H     -354.902     407.321     712.778
  H     -357.726     400.080     717.268
  H     -349.182     404.073     714.213
  H     -351.543     404.154     715.016
  H     -353.564     407.194     714.852
  H     -353.679     404.741     713.004
  H     -355.967     404.434     713.628
  H     -355.556     405.116     716.354
  H     -347.766     406.982     712.369
  H     -354.365     402.821     714.737
  H     -347.399     405.376     712.948
  H     -354.128     402.974     716.502
  P     -357.852     406.257     714.045
  C     -357.733     406.683     711.520
  O     -358.053     405.736     712.538
  O     -358.632     407.483     714.383
  O     -358.351     405.015     714.934
  H     -359.274     405.155     715.192
  H     -357.899     406.243     710.559
  H     -356.706     406.969     711.609
  H     -358.354     407.547     711.629

 6  7  8  9  10  11  12  13  14  15  16  26  30  31  32  33  35 0
 6-311+G(2d,p)
 ****
 37  38 0
 6-311+G(2d,p)
 ****
 1  2  3  4  5  17  18  19  20  21  22  23  24  25 0
 3-21G
 ****
 27  28  29  34  36  39  40  41  42  43  44  45  46 0
 3-21G
 ****


