%nproc=1
%NoSave
%Mem=1900MB
#P OB98/GEN NMR

erre ene a

0 1
  C      155.697     256.233     475.822
  O      154.364     256.105     475.354
  P      153.319     257.319     475.481
  C      152.334     256.190     477.588
  O      152.928     257.360     477.035
  C      151.158     256.579     478.486
  O      151.648     257.208     479.684
  C      150.191     257.573     477.858
  O      149.345     256.941     476.908
  C      149.494     258.117     479.106
  O      148.483     257.202     479.550
  C      150.651     258.159     480.119
  N      151.225     259.494     480.277
  C      150.978     260.144     481.491
  O      150.308     259.600     482.377
  N      151.514     261.391     481.697
  C      152.223     261.952     480.757
  N      152.787     263.158     481.042
  C      152.462     261.325     479.443
  C      151.949     260.109     479.276
  O      152.163     257.252     474.545
  O      154.209     258.634     475.314
  H      148.151     257.550     480.404
  H      154.316     258.924     474.372
  H      153.043     261.843     478.694
  H      152.094     259.574     478.349
  H      150.307     257.804     481.103
  H      149.020     259.094     478.949
  H      150.747     258.384     477.363
  H      150.630     255.662     478.769
  H      152.744     263.470     482.005
  H      153.086     255.669     478.191
  H      153.566     263.516     480.503
  H      152.008     255.528     476.777
  P      148.952     257.780     475.604
  C      146.823     258.945     476.527
  O      148.181     259.086     476.129
  O      147.800     256.888     474.934
  O      150.083     258.039     474.668
  H      148.158     256.371     474.179
  H      146.529     259.846     477.077
  H      146.698     258.079     477.181
  H      146.186     258.848     475.646
  H      156.226     255.320     475.646
  H      155.688     256.443     476.871
  H      156.182     257.033     475.302

 3  4  5  6  7  8  9  10  11  12  13  23  27  28  29  30  32 0
 6-311+G(2d,p)
 ****
 34  35 0
 6-311+G(2d,p)
 ****
 1  2  14  15  16  17  18  19  20  21  22  24  25  26 0
 3-21G
 ****
 31  33  36  37  38  39  40  41  42  43  44  45  46 0
 3-21G
 ****


