%nproc=1
%NoSave
%Mem=1900MB
#P OB98/GEN NMR

erre ene a

0 1
  C      -35.447     250.470    -245.734
  O      -35.169     251.790    -245.264
  P      -33.633     252.119    -244.940
  C      -33.312     253.945    -246.757
  O      -33.347     253.639    -245.370
  C      -33.598     255.430    -246.991
  O      -34.980     255.766    -246.764
  C      -32.789     256.352    -246.080
  O      -31.471     256.493    -246.587
  C      -33.598     257.639    -246.152
  O      -33.253     258.417    -247.316
  C      -35.043     257.126    -246.260
  N      -37.527     260.060    -242.953
  C      -36.748     260.412    -244.039
  N      -36.637     261.733    -244.295
  N      -36.138     259.546    -244.807
  C      -36.338     258.261    -244.432
  C      -37.109     257.787    -243.396
  C      -37.779     258.756    -242.551
  O      -38.496     258.493    -241.593
  N      -37.123     256.414    -243.366
  C      -36.263     256.068    -244.304
  N      -35.807     257.146    -245.022
  O      -32.832     251.255    -246.022
  O      -33.228     251.764    -243.545
  H      -33.963     259.058    -247.491
  H      -32.371     250.517    -245.580
  H      -37.968     260.770    -242.392
  H      -35.955     255.056    -244.522
  H      -35.623     257.709    -246.987
  H      -33.411     258.282    -245.285
  H      -37.080     262.454    -243.750
  H      -32.783     255.964    -245.057
  H      -36.076     262.012    -245.093
  H      -33.364     255.647    -248.040
  H      -34.044     253.339    -247.293
  H      -32.326     253.671    -247.149
  P      -30.257     256.412    -245.543
  C      -28.809     254.914    -247.089
  O      -28.923     256.130    -246.378
  O      -30.532     255.029    -244.775
  O      -30.187     257.553    -244.582
  H      -30.399     255.157    -243.815
  H      -28.171     255.075    -247.965
  H      -29.784     254.545    -247.423
  H      -28.341     254.165    -246.445
  H      -36.497     250.370    -245.915
  H      -35.142     249.757    -244.996
  H      -34.910     250.295    -246.643

 3  4  5  6  7  8  9  10  11  12  23  26  30  31 0
 6-311+G(2d,p)
 ****
 33  35  36  37  38 0
 6-311+G(2d,p)
 ****
 1  2  13  14  15  16  17  18  19  20  21  22  24  25 0
 3-21G
 ****
 27  28  29  32  34  39  40  41  42  43  44  45  46  47  48  49 0
 3-21G
 ****


