%nproc=1
%NoSave
%Mem=1900MB
#P OB98/GEN NMR

erre ene a

0 1
  C      624.091     367.976    1177.306
  O      623.352     367.741    1178.490
  H      623.393     368.138    1176.482
  H      624.721     367.116    1177.068
  H      624.713     368.877    1177.422
  P      624.147     367.358    1179.827
  C      624.320     364.844    1179.211
  O      623.817     365.809    1180.127
  C      624.031     363.423    1179.719
  O      624.774     363.221    1180.960
  C      622.549     363.152    1180.023
  O      622.313     361.752    1179.789
  C      622.481     363.463    1181.499
  O      621.287     362.991    1182.075
  C      623.801     362.859    1181.974
  N      624.193     363.342    1183.295
  C      624.395     362.361    1184.273
  O      624.220     361.174    1184.004
  N      624.760     362.760    1185.537
  C      624.839     364.018    1185.812
  N      625.184     364.351    1187.094
  C      624.587     365.087    1184.828
  C      624.276     364.685    1183.586
  O      623.945     368.268    1180.983
  O      625.679     367.309    1179.366
  H      621.236     361.996    1182.000
  H      626.142     368.113    1179.685
  H      624.652     366.130    1185.117
  H      624.071     365.386    1182.790
  H      623.741     361.755    1182.013
  H      622.489     364.555    1181.665
  H      621.872     363.761    1179.410
  H      624.438     362.702    1178.975
  H      625.337     363.578    1187.740
  H      625.394     365.001    1179.126
  H      625.260     365.306    1187.430
  H      623.853     364.984    1178.223
  P      621.812     361.170    1178.365
  C      619.529     360.460    1179.333
  O      620.701     360.057    1178.620
  O      622.944     360.737    1177.464
  O      620.999     362.379    1177.690
  H      621.095     362.319    1176.725
  H      618.869     359.624    1179.435
  H      619.035     361.241    1178.794
  H      619.807     360.816    1180.303

 6  7  8  9  10  11  12  13  14  15  16  26  30  31  32  33  35 0
 6-311+G(2d,p)
 ****
 37  38 0
 6-311+G(2d,p)
 ****
 1  2  3  4  5  17  18  19  20  21  22  23  24  25 0
 3-21G
 ****
 27  28  29  34  36  39  40  41  42  43  44  45  46 0
 3-21G
 ****


