%nproc=1
%NoSave
%Mem=1900MB
#P OB98/GEN NMR

erre ene a

0 1
  C     1150.482    -894.640     -66.018
  O     1150.152    -895.910     -66.565
  P     1148.926    -896.720     -65.904
  C     1147.358    -896.610     -67.977
  O     1147.577    -896.230     -66.634
  C     1145.908    -897.070     -68.154
  O     1145.687    -898.230     -67.316
  C     1144.848    -896.020     -67.781
  O     1143.725    -896.230     -68.650
  C     1144.483    -896.410     -66.366
  O     1143.205    -895.910     -65.985
  C     1144.562    -897.910     -66.450
  N     1142.665    -898.460     -61.790
  C     1142.237    -897.670     -62.846
  N     1141.103    -897.000     -62.644
  N     1142.843    -897.590     -63.991
  C     1143.974    -898.340     -64.052
  C     1144.526    -899.140     -63.070
  C     1143.819    -899.250     -61.829
  O     1144.131    -900.000     -60.902
  N     1145.712    -899.670     -63.488
  C     1145.830    -899.290     -64.734
  N     1144.777    -898.520     -65.134
  O     1148.824    -896.060     -64.448
  O     1149.085    -898.220     -65.860
  H     1142.997    -896.250     -65.084
  H     1149.324    -896.590     -63.797
  H     1142.140    -898.520     -60.924
  H     1146.645    -899.540     -65.401
  H     1143.664    -898.370     -66.877
  H     1145.227    -896.000     -65.664
  H     1140.541    -897.030     -61.783
  H     1145.206    -895.000     -67.875
  H     1140.728    -896.430     -63.395
  H     1145.784    -897.390     -69.194
  H     1148.020    -897.450     -68.218
  H     1147.607    -895.780     -68.659
  P     1142.885    -894.950     -69.122
  C     1144.130    -893.890     -71.131
  O     1143.931    -893.900     -69.728
  O     1142.456    -894.260     -67.742
  O     1141.693    -895.270     -69.965
  H     1141.592    -893.830     -67.846
  H     1144.494    -892.890     -71.441
  H     1143.210    -894.080     -71.676
  H     1144.851    -894.650     -71.396
  H     1151.309    -894.225     -66.555
  H     1150.746    -894.753     -64.987
  H     1149.639    -893.986     -66.100

 3  4  5  6  7  8  9  10  11  12  23  26  30  31 0
 6-311+G(2d,p)
 ****
 33  35  36  37  38 0
 6-311+G(2d,p)
 ****
 1  2  13  14  15  16  17  18  19  20  21  22  24  25 0
 3-21G
 ****
 27  28  29  32  34  39  40  41  42  43  44  45  46  47  48  49 0
 3-21G
 ****


