%nproc=1
%NoSave
%Mem=1900MB
#P OB98/GEN NMR

erre ene a

0 1
  C     -224.173     112.209     -20.452
  O     -223.519     111.023     -20.921
  P     -224.002     109.615     -20.331
  C     -223.521     108.186     -22.450
  O     -224.493     108.705     -21.556
  C     -223.560     106.655     -22.449
  O     -223.020     106.108     -21.226
  C     -224.964     106.080     -22.578
  O     -225.392     106.034     -23.933
  C     -224.751     104.669     -22.056
  O     -224.171     103.847     -23.088
  C     -223.746     104.891     -20.920
  N     -225.530     102.339     -16.935
  C     -224.932     101.879     -18.091
  N     -224.779     100.540     -18.198
  N     -224.520     102.658     -19.056
  C     -224.721     103.972     -18.803
  C     -225.303     104.551     -17.699
  C     -225.768     103.677     -16.646
  O     -226.318     104.026     -15.607
  N     -225.337     105.916     -17.810
  C     -224.759     106.166     -18.968
  N     -224.382     105.018     -19.619
  O     -225.376     109.988     -19.597
  O     -223.033     108.975     -19.394
  H     -223.795     103.063     -22.643
  H     -225.540     109.367     -18.864
  H     -225.833     101.693     -16.226
  H     -224.591     107.154     -19.376
  H     -223.014     104.080     -20.843
  H     -225.688     104.188     -21.760
  H     -225.027      99.886     -17.473
  H     -225.675     106.617     -21.938
  H     -224.312     100.187     -19.023
  H     -222.948     106.299     -23.289
  H     -222.522     108.531     -22.170
  H     -223.705     108.591     -23.449
  P     -226.963     106.171     -24.227
  C     -226.404     108.664     -24.681
  O     -227.300     107.731     -24.114
  O     -227.625     105.532     -22.917
  O     -227.425     105.489     -25.468
  H     -228.475     105.112     -23.144
  H     -226.867     109.653     -24.655
  H     -226.183     108.408     -25.721
  H     -225.477     108.695     -24.102
  H     -223.746     113.065     -20.932
  H     -224.044     112.292     -19.393
  H     -225.217     112.155     -20.681

 3  4  5  6  7  8  9  10  11  12  23  26  30  31 0
 6-311+G(2d,p)
 ****
 33  35  36  37  38 0
 6-311+G(2d,p)
 ****
 1  2  13  14  15  16  17  18  19  20  21  22  24  25 0
 3-21G
 ****
 27  28  29  32  34  39  40  41  42  43  44  45  46  47  48  49 0
 3-21G
 ****


