%nproc=1
%NoSave
%Mem=1900MB
#P OB98/GEN NMR

erre ene a

0 1
  C      -35.001     321.195     -30.196
  O      -34.524     322.031     -29.159
  H      -35.715     320.483     -29.774
  H      -34.172     320.638     -30.642
  H      -35.504     321.791     -30.964
  P      -33.470     323.167     -29.578
  C      -31.168     323.116     -30.789
  O      -32.131     322.401     -30.020
  C      -29.770     322.596     -30.467
  O      -29.384     323.021     -29.139
  C      -29.664     321.076     -30.451
  O      -29.581     320.525     -31.759
  C      -28.395     320.878     -29.630
  O      -27.223     321.012     -30.440
  C      -28.476     322.019     -28.613
  N      -27.301     321.773     -23.651
  C      -26.682     322.366     -24.697
  N      -27.071     322.401     -25.990
  C      -28.238     321.752     -26.150
  C      -28.984     321.102     -25.178
  C      -28.474     321.127     -23.869
  N      -29.087     320.504     -22.809
  N      -30.106     320.518     -25.735
  C      -30.043     320.816     -27.019
  N      -28.936     321.564     -27.314
  O      -33.085     323.837     -28.176
  O      -33.981     324.176     -30.554
  H      -27.244     321.918     -30.804
  H      -33.582     324.670     -28.063
  H      -25.752     322.873     -24.467
  H      -30.766     320.514     -27.769
  H      -27.507     322.510     -28.462
  H      -28.378     319.885     -29.177
  H      -30.513     320.645     -29.905
  H      -29.058     323.030     -31.184
  H      -31.222     324.181     -30.541
  H      -31.394     322.985     -31.853
  H      -28.628     320.507     -21.916
  H      -29.900     319.924     -22.981
  P      -30.569     319.318     -32.120
  C      -30.835     316.843     -31.336
  O      -30.043     318.019     -31.340
  O      -30.240     319.002     -33.654
  O      -32.016     319.615     -31.909
  H      -31.058     318.737     -34.120
  H      -30.338     316.080     -30.774
  H      -30.980     316.507     -32.342
  H      -31.784     317.054     -30.890

 6  7  8  9  10  11  12  13  14  15  25  28  32  33  34  35 0
 6-311+G(2d,p)
 ****
 36  37  40 0
 6-311+G(2d,p)
 ****
 1  2  3  4  5  16  17  18  19  20  21  22  23  24 0
 3-21G
 ****
 26  27  29  30  31  38  39 41  42  43  44  45  46  47  48 0
 3-21G
 ****


