%nproc=1
%NoSave
%Mem=1900MB
#P OB98/GEN NMR

erre ene a

0 1
  C     -430.456       9.002    -360.414
  O     -430.786       8.276    -359.244
  P     -430.820       9.009    -357.822
  C     -432.877       7.872    -356.780
  O     -432.343       9.078    -357.320
  C     -434.162       7.489    -357.500
  O     -433.912       7.242    -358.903
  C     -434.808       6.207    -356.982
  O     -435.419       6.391    -355.725
  C     -435.762       5.879    -358.126
  O     -436.962       6.659    -358.026
  C     -434.935       6.322    -359.357
  N     -434.357       5.191    -360.070
  C     -435.255       4.201    -360.490
  O     -436.446       4.270    -360.185
  N     -434.778       3.158    -361.241
  C     -433.503       3.041    -361.445
  N     -433.095       2.022    -362.246
  C     -432.502       3.979    -360.884
  C     -433.003       5.033    -360.230
  O     -430.079      10.304    -357.758
  O     -430.171       7.934    -356.822
  H     -429.470       8.377    -356.299
  H     -437.469       6.500    -358.845
  H     -431.448       3.799    -361.024
  H     -432.346       5.781    -359.806
  H     -435.563       6.890    -360.050
  H     -436.058       4.826    -358.133
  H     -434.045       5.423    -356.914
  H     -434.868       8.329    -357.422
  H     -433.803       1.407    -362.627
  H     -433.079       8.029    -355.716
  H     -432.197       2.029    -362.724
  H     -432.129       7.070    -356.870
  P     -434.861       5.499    -354.512
  C     -435.038       7.204    -352.573
  O     -434.193       6.495    -353.453
  O     -433.612       4.730    -355.159
  O     -435.856       4.538    -353.939
  H     -433.557       3.828    -354.792
  H     -434.453       7.549    -351.720
  H     -435.861       6.578    -352.207
  H     -435.449       8.081    -353.089
  H     -430.485       8.348    -361.260
  H     -429.473       9.412    -360.314
  H     -431.161       9.795    -360.552

 3  4  5  6  7  8  9  10  11  12  13  24  27  28  29  30  32 0
 6-311+G(2d,p)
 ****
 34  35 0
 6-311+G(2d,p)
 ****
 1  2  14  15  16  17  18  19  20  21  22  23  25  26 0
 3-21G
 ****
 31  33  36  37  38  39  40  41  42  43  44  45  46 0
 3-21G
 ****


