%nproc=1
%NoSave
%Mem=1900MB
#P OB98/GEN NMR

erre ene a

0 1
  C     -233.855    -365.804      65.759
  O     -232.910    -364.889      65.247
  H     -233.396    -366.796      65.791
  H     -234.728    -365.842      65.102
  H     -234.165    -365.531      66.769
  P     -233.200    -363.322      65.390
  C     -231.020    -362.375      66.398
  O     -232.353    -362.799      66.647
  C     -230.032    -363.135      67.292
  O     -229.965    -364.514      66.852
  C     -228.618    -362.559      67.180
  O     -227.858    -362.764      68.368
  C     -228.009    -363.385      66.058
  O     -226.581    -363.413      66.092
  C     -228.658    -364.746      66.297
  N     -227.518    -369.142      63.983
  C     -227.034    -368.629      65.170
  N     -226.130    -369.390      65.829
  N     -227.389    -367.468      65.656
  C     -228.242    -366.785      64.857
  C     -228.772    -367.176      63.648
  C     -228.400    -368.480      63.139
  O     -228.781    -368.970      62.082
  N     -229.595    -366.211      63.126
  C     -229.561    -365.236      64.012
  N     -228.773    -365.547      65.092
  O     -234.704    -363.264      65.940
  O     -233.043    -362.517      64.136
  H     -226.275    -362.493      66.184
  H     -235.105    -362.399      65.742
  H     -227.236    -370.053      63.670
  H     -230.097    -364.299      63.928
  H     -228.082    -365.326      67.026
  H     -228.300    -362.935      65.105
  H     -225.691    -370.188      65.396
  H     -228.611    -361.500      66.933
  H     -225.546    -368.907      66.516
  H     -230.396    -363.149      68.325
  H     -230.982    -361.304      66.606
  H     -230.769    -362.510      65.345
  P     -228.227    -361.905      69.670
  C     -229.099    -363.569      71.533
  O     -229.370    -362.646      70.501
  O     -228.960    -360.615      69.079
  O     -227.049    -361.541      70.521
  H     -228.437    -359.812      69.264
  H     -230.021    -363.931      71.939
  H     -228.534    -363.087      72.304
  H     -228.537    -364.390      71.139

 6  7  8  9  10  11  12  13  14  15  26  29  33  34 0
 6-311+G(2d,p)
 ****
 36  38  39  40  41 0
 6-311+G(2d,p)
 ****
 1  2  3  4  5  16  17  18  19  20  21  22  23  24  25 0
 3-21G
 ****
 27  28  30  31  32  35  37  42  43  44  45  46  47 0
 3-21G
 ****
 48  49 0
 3-21G
 ****


