%nproc=1
%NoSave
%Mem=1900MB
#P OB98/GEN NMR

erre ene a

0 1
  C      529.180    -899.500     308.442
  O      529.394    -898.120     308.663
  H      530.145    -900.000     308.486
  H      528.737    -899.660     307.463
  H      528.548    -899.910     309.227
  P      528.127    -897.130     308.602
  C      527.813    -896.760     306.067
  O      527.368    -897.440     307.231
  C      527.023    -897.210     304.843
  O      525.673    -896.640     304.957
  C      527.624    -896.710     303.503
  O      527.826    -897.760     302.564
  C      526.708    -895.540     303.113
  O      526.679    -895.290     301.720
  C      525.367    -895.940     303.728
  N      524.493    -894.810     304.000
  C      523.652    -894.390     302.970
  O      523.572    -894.910     301.856
  N      522.846    -893.310     303.263
  C      522.810    -892.620     304.446
  O      522.076    -891.660     304.636
  C      523.742    -893.100     305.478
  C      524.518    -894.140     305.214
  O      528.438    -895.680     308.831
  O      527.136    -897.710     309.711
  H      527.602    -895.310     301.416
  H      527.152    -897.120     310.499
  H      522.230    -893.020     302.523
  H      523.757    -892.570     306.423
  H      525.225    -894.510     305.973
  H      524.826    -896.630     303.089
  H      527.082    -894.630     303.601
  H      528.639    -896.330     303.676
  H      526.919    -898.290     304.851
  H      528.887    -896.990     305.926
  H      527.711    -895.670     306.204
  P      529.196    -898.040     301.777
  C      529.191    -896.260     299.825
  O      529.670    -896.660     301.108
  O      529.201    -899.240     300.905
  O      530.281    -898.250     302.954
  H      530.921    -898.890     302.597
  H      529.624    -895.318     299.561
  H      528.125    -896.167     299.855
  H      529.465    -896.995     299.097

 6  7  8  9  10  11  12  13  14  15  16  26  31  32  33  34  35 0
 6-311+G(2d,p)
 ****
 36  37 0
 6-311+G(2d,p)
 ****
 1  2  3  4  5  17  18  19  20  21  22  23  24  25 0
 3-21G
 ****
 27  28  29  30  38  39  40  41  42  43  44  45 0
 3-21G
 ****


