%nproc=1
%NoSave
%Mem=1900MB
#P OB98/GEN NMR

erre ene a

0 1
  C      253.132     214.611     174.774
  O      252.808     215.783     175.505
  P      253.185     217.236     174.937
  C      250.697     217.523     174.292
  O      252.048     217.566     173.852
  C      250.149     218.941     174.431
  O      250.416     219.676     173.220
  C      248.643     219.019     174.635
  O      248.292     218.683     175.968
  C      248.366     220.459     174.225
  O      248.701     221.361     175.297
  C      249.352     220.651     173.055
  N      248.716     220.518     171.750
  C      247.978     221.613     171.297
  O      247.885     222.634     171.977
  N      247.377     221.541     170.062
  C      247.489     220.465     169.348
  N      246.934     220.475     168.106
  C      248.219     219.264     169.809
  C      248.805     219.362     170.999
  O      254.581     217.370     174.434
  O      252.830     218.239     176.129
  H      249.614     221.142     175.570
  H      253.574     218.377     176.764
  H      248.269     218.387     169.179
  H      249.376     218.533     171.401
  H      249.827     221.637     173.115
  H      247.325     220.644     173.952
  H      248.124     218.337     173.947
  H      250.675     219.435     175.256
  H      246.607     221.373     167.764
  H      250.664     217.031     175.274
  H      247.219     219.809     167.395
  H      250.106     216.935     173.583
  P      247.549     217.282     176.214
  C      249.576     216.172     177.376
  O      248.708     216.175     176.263
  O      246.799     217.017     174.828
  O      246.612     217.279     177.379
  H      245.850     217.248     174.898
  H      250.136     215.231     177.377
  H      249.015     216.244     178.313
  H      250.285     217.000     177.299
  H      252.800     213.750     175.316
  H      254.192     214.559     174.635
  H      252.648     214.641     173.820

 3  4  5  6  7  8  9  10  11  12  13  23  27  28  29  30  32 0
 6-311+G(2d,p)
 ****
 34  35 0
 6-311+G(2d,p)
 ****
 1  2  14  15  16  17  18  19  20  21  22  24  25  26 0
 3-21G
 ****
 31  33  36  37  38  39  40  41  42  43  44  45  46 0
 3-21G
 ****


