%nproc=1
%NoSave
%Mem=1900MB
#P OB98/GEN NMR

erre ene a

0 1
  C      158.718     300.655     281.942
  O      157.657     301.390     282.518
  H      158.744     300.814     280.860
  H      159.663     301.002     282.371
  H      158.602     299.589     282.159
  P      156.178     301.055     281.994
  C      155.847     299.358     283.939
  O      155.866     299.576     282.536
  C      154.627     298.519     284.302
  O      154.731     298.057     285.669
  C      153.309     299.280     284.221
  O      152.801     299.348     282.899
  C      152.429     298.417     285.107
  O      152.031     297.232     284.394
  C      153.397     298.053     286.244
  N      150.755     299.566     290.361
  C      150.556     298.561     289.482
  N      151.320     298.212     288.425
  C      152.388     299.015     288.323
  C      152.725     300.078     289.147
  C      151.848     300.351     290.210
  N      152.030     301.396     291.088
  N      153.889     300.680     288.710
  C      154.253     299.984     287.652
  N      153.361     298.987     287.359
  O      156.373     300.828     280.422
  O      155.127     302.066     282.314
  H      152.849     296.784     284.108
  H      155.510     300.840     279.967
  H      149.668     297.960     289.648
  H      155.141     300.166     287.063
  H      153.212     297.054     286.654
  H      151.515     298.927     285.419
  H      153.395     300.280     284.666
  H      154.613     297.634     283.654
  H      155.793     300.327     284.448
  H      151.271     301.601     291.722
  H      152.754     302.072     290.896
  H      156.764     298.845     284.240
  P      151.373     300.056     282.691
  C      152.326     302.426     283.166
  O      151.410     301.408     283.554
  O      150.383     299.116     283.522
  O      150.955     300.205     281.265
  H      149.496     299.096     283.113
  H      152.235     303.260     283.831
  H      152.107     302.741     282.167
  H      153.324     302.043     283.209

 6  7  8  9  10  11  12  13  14  15  25  28  32  33  34  35 0
 6-311+G(2d,p)
 ****
 36  39  40 0
 6-311+G(2d,p)
 ****
 1  2  3  4  5  16  17  18  19  20  21  22  23  24 0
 3-21G
 ****
 26  27  29  30  31  37  38  41  42  43  44  45  46  47 0
 3-21G
 ****
 48 0
 3-21G
 ****


