%nproc=1
%NoSave
%Mem=1900MB
#P OB98/GEN NMR

erre ene a

0 1
  C      137.879       1.416      16.181
  O      136.911       0.994      15.241
  H      137.365       1.860      17.038
  H      138.546       2.165      15.746
  H      138.462       0.558      16.531
  P      137.418       0.543      13.785
  C      136.992      -1.966      14.227
  O      137.966      -0.957      13.967
  C      137.648      -3.231      14.789
  O      138.226      -2.957      16.081
  C      136.674      -4.374      15.023
  O      136.161      -4.947      13.838
  C      137.427      -5.249      16.016
  O      138.320      -6.170      15.397
  C      138.234      -4.197      16.817
  N      137.721      -4.031      18.173
  C      138.267      -4.871      19.135
  O      139.119      -5.727      18.887
  N      137.777      -4.728      20.403
  C      136.775      -3.880      20.779
  O      136.347      -3.825      21.927
  C      136.217      -3.034      19.712
  C      136.707      -3.145      18.474
  O      138.393       1.468      13.121
  O      136.063       0.336      12.959
  H      137.876      -6.504      14.593
  H      136.239       0.316      11.988
  H      138.168      -5.321      21.117
  H      135.420      -2.349      19.973
  H      136.312      -2.532      17.668
  H      139.286      -4.505      16.893
  H      136.742      -5.833      16.634
  H      135.807      -3.976      15.563
  H      138.456      -3.531      14.111
  H      136.503      -2.207      13.277
  H      136.240      -1.583      14.924
  P      134.719      -4.593      13.246
  C      135.346      -4.109      10.771
  O      134.917      -3.573      12.017
  O      133.634      -4.320      14.237
  O      134.345      -5.968      12.487
  H      133.379      -6.091      12.563
  H      135.433      -3.319      10.054
  H      134.631      -4.826      10.426
  H      136.297      -4.584      10.895

 6  7  8  9  10  11  12  13  14  15  16  26  31  32  33  34  35 0
 6-311+G(2d,p)
 ****
 36  37 0
 6-311+G(2d,p)
 ****
 1  2  3  4  5  17  18  19  20  21  22  23  24  25 0
 3-21G
 ****
 27  28  29  30  38  39  40  41  42  43  44  45 0
 3-21G
 ****


