%nproc=1
%NoSave
%Mem=1900MB
#P OB98/GEN NMR

erre ene a

0 1
  C      585.040    -890.970     942.475
  O      586.090    -891.190     943.399
  H      585.460    -890.580     941.554
  H      584.328    -890.240     942.882
  H      584.529    -891.910     942.246
  P      585.771    -891.930     944.785
  C      586.469    -894.120     943.633
  O      586.588    -893.320     944.782
  C      587.717    -895.000     943.458
  O      588.892    -894.180     943.240
  C      588.039    -895.830     944.707
  O      587.175    -896.950     944.836
  C      589.502    -896.170     944.435
  O      589.626    -897.300     943.563
  C      590.030    -894.870     943.749
  N      590.807    -894.050     944.699
  C      592.104    -894.420     944.881
  O      592.656    -895.370     944.319
  N      592.812    -893.670     945.798
  C      592.264    -892.690     946.617
  O      592.861    -892.230     947.572
  C      590.883    -892.300     946.284
  C      590.236    -892.990     945.361
  O      584.321    -892.050     945.127
  O      586.565    -891.060     945.878
  H      585.927    -890.480     946.326
  H      589.393    -898.090     944.082
  H      593.754    -893.960     945.983
  H      590.446    -891.510     946.874
  H      589.170    -892.740     945.150
  H      590.675    -895.140     942.893
  H      590.049    -896.430     945.353
  H      587.978    -895.190     945.605
  H      587.585    -895.660     942.590
  H      586.366    -893.470     942.741
  H      585.573    -894.740     943.695
  P      587.296    -897.900     946.146
  C      586.601    -896.180     947.925
  O      586.247    -897.390     947.229
  O      588.672    -898.120     946.640
  O      586.636    -899.270     945.620
  H      587.246    -900.000     945.841
  H      585.830    -895.932     948.624
  H      586.713    -895.383     947.220
  H      587.523    -896.326     948.448

 6  7  8  9  10  11  12  13  14  15  16  27  31  32  33  34  35 0
 6-311+G(2d,p)
 ****
 36  37 0
 6-311+G(2d,p)
 ****
 1  2  3  4  5  17  18  19  20  21  22  23  24  25 0
 3-21G
 ****
 26  28  29  30  38  39  40  41  42  43  44  45 0
 3-21G
 ****


