%nproc=1
%NoSave
%Mem=1900MB
#P OB98/GEN NMR

erre ene a

0 1
  C      141.223     -79.914     -86.683
  O      140.792     -79.405     -87.925
  H      140.365     -80.352     -86.165
  H      141.625     -79.105     -86.068
  H      141.983     -80.687     -86.824
  P      141.917     -78.852     -88.928
  C      144.290     -79.686     -89.573
  O      142.993     -80.031     -89.106
  C      144.977     -80.908     -90.183
  O      145.225     -81.878     -89.133
  C      144.154     -81.597     -91.275
  O      145.040     -82.041     -92.305
  C      143.555     -82.799     -90.569
  O      143.235     -83.860     -91.467
  C      144.646     -83.133     -89.545
  N      144.107     -83.879     -88.411
  C      144.489     -85.221     -88.303
  O      145.237     -85.719     -89.144
  N      143.975     -85.976     -87.283
  C      143.084     -85.464     -86.490
  N      142.586     -86.276     -85.517
  C      142.600     -84.075     -86.608
  C      143.155     -83.344     -87.574
  O      142.700     -77.770     -88.048
  O      141.407     -78.282     -90.209
  H      144.034     -84.067     -91.999
  H      143.040     -77.043     -88.601
  H      141.839     -83.703     -85.939
  H      142.858     -82.318     -87.742
  H      145.444     -83.727     -90.010
  H      142.632     -82.502     -90.057
  H      143.385     -80.949     -91.709
  H      145.955     -80.598     -90.569
  H      142.931     -87.228     -85.482
  H      144.888     -79.326     -88.729
  H      141.858     -85.999     -84.876
  H      144.207     -78.883     -90.314
  P      145.804     -80.903     -93.139
  C      147.137     -78.836     -92.307
  O      146.899     -80.231     -92.182
  O      144.694     -79.764     -93.310
  O      146.320     -81.375     -94.459
  H      144.388     -79.732     -94.235
  H      147.889     -78.538     -91.606
  H      146.232     -78.301     -92.108
  H      147.469     -78.618     -93.301

 6  7  8  9  10  11  12  13  14  15  16  26  30  31  32  33  35 0
 6-311+G(2d,p)
 ****
 37  38 0
 6-311+G(2d,p)
 ****
 1  2  3  4  5  17  18  19  20  21  22  23  24  25 0
 3-21G
 ****
 27  28  29  34  36  39  40  41  42  43  44  45  46 0
 3-21G
 ****


