%nproc=1
%NoSave
%Mem=1900MB
#P OB98/GEN NMR

erre ene a

0 1
  C      -62.340     -62.180      63.902
  O      -63.620     -62.766      63.753
  H      -61.818     -62.226      62.942
  H      -61.762     -62.737      64.644
  H      -62.429     -61.134      64.206
  P      -64.630     -62.588      64.984
  C      -62.824     -63.189      66.788
  O      -64.076     -63.497      66.191
  C      -62.454     -64.261      67.809
  O      -61.171     -63.981      68.403
  C      -63.392     -64.339      69.001
  O      -64.641     -64.908      68.674
  C      -62.568     -65.193      69.954
  O      -62.730     -66.591      69.688
  C      -61.122     -64.738      69.635
  N      -60.543     -63.981      70.729
  C      -59.142     -63.963      70.768
  O      -58.491     -64.547      69.901
  N      -58.523     -63.318      71.807
  C      -59.235     -62.765      72.738
  N      -58.558     -62.171      73.757
  C      -60.711     -62.763      72.735
  C      -61.296     -63.384      71.711
  O      -65.922     -63.389      64.487
  O      -64.899     -61.175      65.373
  H      -63.649     -66.815      69.943
  H      -65.725     -64.276      64.144
  H      -61.259     -62.276      73.529
  H      -62.375     -63.431      71.629
  H      -60.480     -65.608      69.442
  H      -62.859     -65.032      70.995
  H      -63.513     -63.345      69.452
  H      -62.393     -65.224      67.285
  H      -57.548     -62.243      73.748
  H      -62.858     -62.205      67.266
  H      -59.004     -61.779      74.573
  H      -62.076     -63.146      65.991
  P      -66.014     -64.185      69.068
  C      -66.926     -65.702      70.940
  O      -67.017     -65.339      69.567
  O      -66.585     -63.285      68.025
  O      -65.652     -63.445      70.442
  H      -65.356     -64.032      71.158
  H      -67.637     -66.473      71.153
  H      -67.134     -64.847      71.549
  H      -65.939     -66.058      71.150

 6  7  8  9  10  11  12  13  14  15  16  26  30  31  32  33  35 0
 6-311+G(2d,p)
 ****
 37  38 0
 6-311+G(2d,p)
 ****
 1  2  3  4  5  17  18  19  20  21  22  23  24  25 0
 3-21G
 ****
 27  28  29  34  36  39  40  41  42  43  44  45  46 0
 3-21G
 ****


