%nproc=1
%NoSave
%Mem=1900MB
#P OB98/GEN NMR

erre ene a

0 1
  C      -88.360     -78.599      19.837
  O      -89.107     -77.506      20.364
  P      -88.517     -76.058      20.675
  C      -90.777     -74.728      20.477
  O      -89.685     -75.151      21.282
  C      -91.930     -75.741      20.534
  O      -92.450     -75.781      21.897
  C      -93.097     -75.357      19.616
  O      -93.653     -76.460      18.910
  C      -94.021     -74.592      20.548
  O      -95.356     -74.506      20.074
  C      -93.823     -75.331      21.869
  N      -97.408     -73.442      24.973
  C      -97.554     -74.129      23.785
  N      -98.815     -74.330      23.352
  N      -96.549     -74.567      23.074
  C      -95.342     -74.232      23.577
  C      -95.069     -73.541      24.736
  C      -96.188     -73.104      25.542
  O      -96.115     -72.510      26.613
  N      -93.718     -73.399      24.926
  C      -93.177     -73.984      23.877
  N      -94.124     -74.514      23.031
  O      -87.683     -75.448      19.600
  O      -87.559     -76.303      21.949
  H      -95.726     -75.408      20.059
  H      -86.826     -75.659      21.869
  H      -98.217     -73.148      25.492
  H      -92.113     -74.067      23.688
  H      -94.466     -76.210      21.949
  H      -93.641     -73.566      20.622
  H      -99.625     -73.915      23.784
  H      -92.758     -74.688      18.818
  H      -98.909     -74.634      22.382
  H      -91.539     -76.735      20.292
  H      -90.389     -74.662      19.455
  H      -91.111     -73.732      20.770
  P      -93.538     -76.810      17.357
  C      -93.616     -79.370      17.489
  O      -94.296     -78.195      17.090
  O      -92.002     -77.194      17.130
  O      -93.935     -75.703      16.437
  H      -91.597     -76.569      16.497
  H      -94.099     -80.232      17.022
  H      -93.674     -79.476      18.576
  H      -92.568     -79.337      17.177
  H      -89.001     -79.449      19.727
  H      -87.560     -78.840      20.506
  H      -87.958     -78.329      18.883

 3  4  5  6  7  8  9  10  11  12  23  26  30  31 0
 6-311+G(2d,p)
 ****
 33  35  36  37  38 0
 6-311+G(2d,p)
 ****
 1  2  13  14  15  16  17  18  19  20  21  22  24  25 0
 3-21G
 ****
 27  28  29  32  34  39  40  41  42  43  44  45  46  47  48  49 0
 3-21G
 ****


