%nproc=1
%NoSave
%Mem=1900MB
#P OB98/GEN NMR

erre ene a

0 1
  C       68.782    -143.000     -11.087
  O       69.697    -142.772     -10.035
  H       68.150    -143.853     -10.824
  H       69.323    -143.238     -12.006
  H       68.142    -142.129     -11.249
  P       70.559    -141.422     -10.038
  C       70.834    -141.288      -7.477
  O       71.483    -141.465      -8.727
  C       70.237    -142.609      -6.984
  O       71.312    -143.589      -6.869
  C       69.553    -142.514      -5.605
  O       68.473    -143.456      -5.597
  C       70.678    -142.965      -4.692
  O       70.215    -143.271      -3.403
  C       71.249    -144.114      -5.527
  N       72.554    -144.573      -5.072
  C       72.597    -145.752      -4.336
  O       71.607    -146.432      -4.073
  N       73.836    -146.133      -3.892
  C       75.004    -145.461      -4.106
  O       76.090    -145.859      -3.703
  C       74.891    -144.206      -4.864
  C       73.690    -143.826      -5.307
  O       69.787    -140.160     -10.225
  O       71.611    -141.649     -11.224
  H       71.292    -141.208     -12.033
  H       70.951    -143.595      -2.842
  H       73.885    -146.986      -3.357
  H       75.796    -143.638      -5.031
  H       73.568    -142.905      -5.868
  H       70.556    -144.961      -5.545
  H       71.416    -142.166      -4.578
  H       69.169    -141.514      -5.387
  H       69.542    -142.989      -7.744
  H       70.038    -140.548      -7.606
  H       71.555    -140.909      -6.746
  P       67.007    -143.121      -6.159
  C       66.247    -145.448      -6.970
  O       66.071    -144.416      -6.008
  O       67.011    -142.551      -7.541
  O       66.382    -142.074      -5.122
  H       65.827    -141.434      -5.608
  H       65.570    -146.249      -6.761
  H       67.253    -145.810      -6.925
  H       66.051    -145.061      -7.948

 6  7  8  9  10  11  12  13  14  15  16  27  31  32  33  34  35 0
 6-311+G(2d,p)
 ****
 36  37 0
 6-311+G(2d,p)
 ****
 1  2  3  4  5  17  18  19  20  21  22  23  24  25 0
 3-21G
 ****
 26  28  29  30  38  39  40  41  42  43  44  45 0
 3-21G
 ****


