%nproc=1
%NoSave
%Mem=1900MB
#P OB98/GEN NMR

erre ene a

0 1
  C     -389.739    -665.213    -103.964
  O     -389.084    -666.454    -103.699
  P     -387.680    -666.533    -102.932
  C     -386.399    -666.946    -105.130
  O     -386.506    -666.143    -103.959
  C     -385.094    -666.674    -105.884
  O     -383.986    -666.555    -104.971
  C     -384.710    -667.754    -106.898
  O     -385.471    -667.623    -108.087
  C     -383.218    -667.491    -107.040
  O     -382.984    -666.407    -107.961
  C     -382.817    -667.080    -105.620
  N     -379.684    -668.319    -101.763
  C     -380.059    -667.135    -102.271
  N     -380.899    -666.877    -103.310
  C     -381.381    -668.028    -103.811
  C     -381.092    -669.327    -103.396
  C     -380.188    -669.445    -102.317
  N     -379.787    -670.663    -101.815
  N     -381.759    -670.248    -104.168
  C     -382.460    -669.533    -105.021
  N     -382.258    -668.183    -104.845
  O     -387.452    -667.816    -102.193
  O     -387.710    -665.293    -101.908
  H     -382.022    -666.298    -108.050
  H     -387.152    -665.492    -101.127
  H     -379.639    -666.250    -101.790
  H     -383.114    -669.937    -105.778
  H     -382.069    -666.281    -105.624
  H     -382.677    -668.364    -107.424
  H     -384.862    -668.741    -106.449
  H     -385.204    -665.704    -106.388
  H     -387.262    -666.721    -105.775
  H     -379.127    -670.670    -101.058
  H     -380.125    -671.517    -102.250
  H     -386.447    -668.000    -104.838
  P     -386.755    -668.540    -108.323
  C     -385.628    -670.100    -110.011
  O     -386.240    -669.994    -108.740
  O     -387.810    -667.957    -109.207
  O     -387.321    -668.775    -106.842
  H     -388.289    -668.906    -106.869
  H     -386.396    -670.142    -110.784
  H     -385.021    -671.010    -110.042
  H     -384.959    -669.237    -110.200
  H     -390.656    -665.398    -104.483
  H     -389.105    -664.597    -104.567
  H     -389.946    -664.715    -103.040

 3  4  5  6  7  8  9  10  11  12  22  25  29  30  31  32 0
 6-311+G(2d,p)
 ****
 33  36  37 0
 6-311+G(2d,p)
 ****
 1  2  13  14  15  16  17  18  19  20  21  23  24  26 0
 3-21G
 ****
 27  28  34  35  38  39  40  41  42  43  44  45  46  47  48 0
 3-21G
 ****


