%nproc=1
%NoSave
%Mem=1900MB
#P OB98/GEN NMR

erre ene a

0 1
  C        2.619      36.309     347.734
  O        1.532      35.608     347.165
  P        1.675      34.169     346.487
  C        1.299      32.915     348.733
  O        2.158      33.129     347.616
  C        0.872      31.447     348.891
  O        0.244      30.996     347.673
  C        2.107      30.563     349.094
  O        2.676      30.415     350.384
  C        1.774      29.252     348.388
  O        1.308      28.243     349.290
  C        0.667      29.647     347.410
  N        1.285      26.560     343.437
  C        0.595      26.334     344.615
  N        0.188      25.063     344.827
  N        0.356      27.264     345.501
  C        0.907      28.460     345.192
  C        1.598      28.809     344.047
  C        1.820      27.782     343.060
  O        2.497      27.918     342.042
  N        2.077      30.092     344.112
  C        1.715      30.512     345.306
  N        1.039      29.546     346.014
  O        2.328      34.120     345.142
  O        0.127      33.759     346.288
  H        1.927      28.202     350.039
  H        0.067      33.235     345.464
  H        1.505      25.784     342.825
  H        1.942      31.490     345.717
  H       -0.218      29.013     347.548
  H        2.667      28.840     347.896
  H        0.483      24.295     344.242
  H        2.913      31.001     348.498
  H       -0.161      24.829     345.748
  H        0.119      31.336     349.673
  H        0.422      33.559     348.602
  H        1.802      33.241     349.645
  P        4.180      29.991     350.715
  C        5.273      32.303     350.726
  O        5.165      31.062     350.050
  O        4.428      28.680     349.824
  O        4.445      29.696     352.156
  H        5.154      28.158     350.205
  H        5.711      33.040     350.049
  H        5.928      32.192     351.599
  H        4.289      32.657     351.056
  H        2.276      37.245     348.123
  H        3.361      36.486     346.984
  H        3.043      35.728     348.526

 3  4  5  6  7  8  9  10  11  12  23  26  30  31 0
 6-311+G(2d,p)
 ****
 33  35  36  37  38 0
 6-311+G(2d,p)
 ****
 1  2  13  14  15  16  17  18  19  20  21  22  24  25 0
 3-21G
 ****
 27  28  29  32  34  39  40  41  42  43  44  45  46  47  48  49 0
 3-21G
 ****


