%nproc=1
%NoSave
%Mem=1900MB
#P OB98/GEN NMR

erre ene a

0 1
  C      626.283     346.100    -826.554
  O      627.018     347.312    -826.351
  P      626.189     348.690    -826.347
  C      626.942     349.772    -828.609
  O      627.022     349.749    -827.194
  C      628.314     350.122    -829.233
  O      628.726     351.421    -828.730
  C      629.448     349.172    -828.882
  O      630.517     349.365    -829.823
  C      629.886     349.702    -827.533
  O      631.195     349.252    -827.186
  C      629.742     351.229    -827.713
  N      629.345     351.931    -826.466
  C      630.310     352.643    -825.768
  O      631.489     352.715    -826.113
  N      629.903     353.245    -824.609
  C      628.630     353.243    -824.108
  O      628.333     353.720    -823.013
  C      627.608     352.607    -824.954
  C      628.009     351.983    -826.064
  O      626.321     349.197    -824.830
  O      624.764     348.538    -826.761
  H      631.195     348.272    -827.285
  H      625.476     349.060    -824.361
  H      630.615     353.704    -824.049
  H      626.590     352.647    -824.623
  H      627.272     351.489    -826.697
  H      630.675     351.689    -828.054
  H      629.211     349.354    -826.758
  H      629.174     348.121    -828.845
  H      628.202     350.214    -830.318
  H      626.182     350.480    -828.940
  H      626.635     348.779    -828.974
  P      630.612     348.337    -831.060
  C      632.336     346.609    -830.248
  O      632.109     347.759    -831.052
  O      630.116     348.838    -832.381
  O      629.752     347.080    -830.541
  H      629.489     346.523    -831.301
  H      633.147     346.024    -830.685
  H      631.451     345.984    -830.166
  H      632.644     346.941    -829.248
  H      626.955     345.268    -826.533
  H      625.790     346.137    -827.503
  H      625.555     345.990    -825.778

 3  4  5  6  7  8  9  10  11  12  13  23  28  29  30  31  32 0
 6-311+G(2d,p)
 ****
 33  34 0
 6-311+G(2d,p)
 ****
 1  2  14  15  16  17  18  19  20  21  22  24  25  26  27 0
 3-21G
 ****
 35  36  37  38  39  40  41  42  43  44  45 0
 3-21G
 ****


