%nproc=1
%NoSave
%Mem=1900MB
#P OB98/GEN NMR

erre ene a

0 1
  C      846.841    -239.639    2007.074
  O      847.259    -239.494    2005.718
  P      846.376    -238.684    2004.615
  C      847.842    -236.578    2004.270
  O      846.644    -237.096    2004.820
  C      847.852    -235.040    2004.334
  O      846.876    -234.506    2003.403
  C      847.513    -234.428    2005.725
  O      848.394    -233.298    2005.887
  C      846.075    -234.022    2005.558
  O      845.636    -233.079    2006.507
  C      846.077    -233.514    2004.129
  N      844.801    -233.279    2003.462
  C      844.192    -232.050    2003.610
  O      844.670    -231.173    2004.365
  N      842.998    -231.821    2003.002
  C      842.393    -232.718    2002.297
  N      841.238    -232.445    2001.687
  C      843.040    -234.093    2002.101
  C      844.220    -234.272    2002.722
  O      844.947    -239.056    2004.592
  O      847.061    -239.014    2003.211
  H      846.382    -239.079    2002.511
  H      846.044    -232.219    2006.356
  H      842.543    -234.821    2001.471
  H      844.706    -235.241    2002.599
  H      846.657    -232.548    2004.105
  H      845.457    -234.925    2005.656
  H      847.694    -235.112    2006.553
  H      848.832    -234.680    2003.985
  H      840.838    -231.528    2001.833
  H      847.927    -236.894    2003.221
  H      840.734    -233.117    2001.105
  H      848.710    -237.006    2004.844
  P      849.668    -233.378    2006.823
  C      851.375    -233.102    2004.889
  O      850.903    -233.913    2005.938
  O      849.316    -234.685    2007.719
  O      849.940    -232.229    2007.738
  H      849.803    -234.616    2008.558
  H      852.505    -233.093    2004.912
  H      851.045    -232.065    2004.957
  H      851.070    -233.502    2003.948
  H      847.572    -240.204    2007.614
  H      845.901    -240.149    2007.105
  H      846.737    -238.672    2007.520

 3  4  5  6  7  8  9  10  11  12  13  24  27  28  29  30  32 0
 6-311+G(2d,p)
 ****
 34  35 0
 6-311+G(2d,p)
 ****
 1  2  14  15  16  17  18  19  20  21  22  23  25  26 0
 3-21G
 ****
 31  33  36  37  38  39  40  41  42  43  44  45  46 0
 3-21G
 ****


