%nproc=1
%NoSave
%Mem=1900MB
#P OB98/GEN NMR

erre ene a

0 1
  C      -38.741      50.620     139.255
  O      -38.978      49.232     139.415
  P      -40.324      48.613     138.804
  C      -41.286      48.440     141.215
  O      -41.498      48.851     139.872
  C      -42.481      48.829     142.087
  O      -42.605      50.285     142.113
  C      -43.825      48.265     141.598
  O      -44.629      47.995     142.755
  C      -44.412      49.436     140.830
  O      -45.817      49.338     140.653
  C      -43.960      50.596     141.723
  N      -44.044      51.895     141.054
  C      -45.312      52.428     140.849
  O      -46.357      51.874     141.193
  N      -45.356      53.614     140.165
  C      -44.294      54.259     139.600
  O      -44.416      55.256     138.899
  C      -42.978      53.649     139.851
  C      -42.912      52.515     140.555
  O      -40.064      47.035     138.869
  O      -40.650      49.068     137.421
  H      -46.002      48.471     140.248
  H      -39.795      46.697     137.995
  H      -46.268      54.020     140.018
  H      -42.109      54.145     139.434
  H      -41.958      52.034     140.735
  H      -44.560      50.622     142.643
  H      -43.950      49.490     139.838
  H      -43.723      47.364     140.984
  H      -42.283      48.503     143.117
  H      -40.387      48.926     141.600
  H      -41.121      47.356     141.246
  P      -45.368      46.571     142.842
  C      -47.305      47.527     141.369
  O      -46.370      46.495     141.594
  O      -46.336      46.812     144.098
  O      -44.434      45.419     143.019
  H      -46.765      47.683     144.077
  H      -46.907      48.502     141.662
  H      -48.215      47.322     141.936
  H      -47.554      47.556     140.304
  H      -37.809      50.878     139.714
  H      -39.532      51.173     139.718
  H      -38.703      50.858     138.212

 3  4  5  6  7  8  9  10  11  12  13  23  28  29  30  31  32 0
 6-311+G(2d,p)
 ****
 33  34 0
 6-311+G(2d,p)
 ****
 1  2  14  15  16  17  18  19  20  21  22  24  25  26 0
 3-21G
 ****
 27  35  36  37  38  39  40  41  42  43  44  45 0
 3-21G
 ****


