%nproc=1
%NoSave
%Mem=1900MB
#P OB98/GEN NMR

erre ene a

0 1
  C     -118.249     314.333    -675.498
  O     -119.314     314.050    -676.378
  H     -118.462     313.877    -674.529
  H     -118.157     315.419    -675.366
  H     -117.305     313.927    -675.872
  P     -119.119     314.319    -677.947
  C     -119.708     311.855    -678.477
  O     -120.000     313.227    -678.722
  C     -120.762     310.950    -679.133
  O     -122.018     311.073    -678.401
  C     -121.044     311.377    -680.581
  O     -121.480     310.276    -681.381
  C     -122.205     312.355    -680.416
  O     -122.988     312.501    -681.602
  C     -122.975     311.727    -679.247
  N     -126.996     314.863    -679.124
  C     -126.449     314.179    -680.198
  N     -127.061     314.357    -681.393
  N     -125.394     313.420    -680.110
  C     -124.844     313.392    -678.871
  C     -125.277     314.044    -677.734
  C     -126.472     314.863    -677.838
  O     -126.979     315.500    -676.927
  N     -124.455     313.792    -676.664
  C     -123.527     312.989    -677.145
  N     -123.729     312.698    -678.477
  O     -117.622     313.813    -678.232
  O     -119.315     315.738    -678.388
  H     -122.545     313.163    -682.158
  H     -117.268     314.231    -679.034
  H     -127.829     315.408    -679.240
  H     -122.690     312.587    -676.579
  H     -123.669     310.970    -679.609
  H     -121.796     313.332    -680.177
  H     -127.750     315.077    -681.533
  H     -120.197     311.859    -681.052
  H     -126.508     314.122    -682.224
  H     -120.452     309.897    -679.055
  H     -119.709     311.724    -677.395
  H     -118.709     311.610    -678.836
  P     -121.528     310.469    -682.969
  C     -119.775     308.589    -683.612
  O     -121.082     309.118    -683.697
  O     -120.318     311.476    -683.273
  O     -122.839     310.989    -683.494
  H     -120.661     312.327    -683.624
  H     -119.719     307.684    -684.179
  H     -119.539     308.384    -682.589
  H     -119.077     309.299    -684.004

 6  7  8  9  10  11  12  13  14  15  26  29  33  34 0
 6-311+G(2d,p)
 ****
 36  38  39  40  41 0
 6-311+G(2d,p)
 ****
 1  2  3  4  5  16  17  18  19  20  21  22  23  24  25 0
 3-21G
 ****
 27  28  30  31  32  35  37  42  43  44  45  46  47 0
 3-21G
 ****
 48  49 0
 3-21G
 ****


