%nproc=1
%NoSave
%Mem=1900MB
#P OB98/GEN NMR

erre ene a

0 1
  C       53.735    -485.534     368.914
  O       52.982    -485.574     367.723
  H       54.550    -484.817     368.790
  H       54.167    -486.524     369.103
  H       53.122    -485.230     369.765
  P       51.506    -486.190     367.765
  C       50.464    -488.550     367.846
  O       51.632    -487.783     367.586
  C       50.446    -489.854     367.041
  O       50.363    -489.559     365.628
  C       51.722    -490.669     367.231
  O       51.744    -491.506     368.372
  C       51.756    -491.500     365.943
  O       50.964    -492.690     366.081
  C       51.130    -490.554     364.917
  N       52.178    -488.375     360.418
  C       51.006    -488.972     360.837
  N       50.010    -489.054     359.927
  N       50.843    -489.466     362.040
  C       51.955    -489.395     362.813
  C       53.178    -488.835     362.496
  C       53.328    -488.247     361.181
  O       54.350    -487.709     360.758
  N       54.064    -488.957     363.534
  C       53.413    -489.648     364.448
  N       52.115    -489.913     364.066
  O       50.865    -485.736     366.364
  O       50.655    -485.741     368.917
  H       50.104    -492.445     366.474
  H       49.897    -485.685     366.444
  H       52.238    -487.984     359.489
  H       53.815    -489.955     365.409
  H       50.429    -491.085     364.253
  H       52.768    -491.822     365.697
  H       50.130    -488.794     358.958
  H       52.598    -490.014     367.237
  H       49.252    -489.712     360.107
  H       49.550    -490.433     367.303
  H       49.610    -487.931     367.575
  H       50.382    -488.767     368.919
  P       53.112    -492.190     368.843
  C       53.878    -494.638     369.315
  O       52.873    -493.775     368.819
  O       53.165    -491.838     370.405
  O       54.329    -491.719     368.126
  H       53.724    -491.048     370.550
  H       53.554    -495.653     369.223
  H       54.063    -494.415     370.345
  H       54.777    -494.498     368.752

 6  7  8  9  10  11  12  13  14  15  26  29  33  34 0
 6-311+G(2d,p)
 ****
 36  38  39  40  41 0
 6-311+G(2d,p)
 ****
 1  2  3  4  5  16  17  18  19  20  21  22  23  24  25 0
 3-21G
 ****
 27  28  30  31  32  35  37  42  43  44  45  46  47 0
 3-21G
 ****
 48  49 0
 3-21G
 ****


