%nproc=1
%NoSave
%Mem=1900MB
#P OB98/GEN NMR

erre ene a

0 1
  C       83.211     663.639     -22.655
  O       82.003     664.330     -22.377
  P       81.686     665.638     -23.248
  C       81.499     667.186     -21.169
  O       80.845     666.604     -22.292
  C       80.529     668.053     -20.372
  O       80.165     669.214     -21.143
  C       79.219     667.366     -20.023
  O       79.401     666.482     -18.936
  C       78.328     668.559     -19.712
  O       78.466     668.960     -18.338
  C       78.873     669.646     -20.661
  N       77.965     669.936     -21.761
  C       76.603     669.982     -21.426
  O       76.242     669.763     -20.268
  N       75.691     670.233     -22.428
  C       76.104     670.414     -23.640
  N       75.155     670.666     -24.590
  C       77.522     670.354     -24.035
  C       78.393     670.111     -23.053
  O       80.607     665.118     -24.306
  O       82.879     666.252     -23.910
  H       77.824     669.690     -18.210
  H       80.626     665.655     -25.119
  H       77.814     670.516     -25.063
  H       79.457     670.048     -23.254
  H       79.049     670.583     -20.110
  H       77.269     668.328     -19.869
  H       78.827     666.824     -20.894
  H       81.040     668.402     -19.462
  H       74.188     670.691     -24.289
  H       82.332     667.805     -21.512
  H       75.377     670.842     -25.557
  H       81.902     666.382     -20.538
  P       79.374     664.909     -19.241
  C       77.267     664.328     -17.912
  O       78.675     664.251     -17.963
  O       80.914     664.500     -19.028
  O       78.863     664.484     -20.576
  H       81.051     663.568     -19.289
  H       76.903     663.711     -17.083
  H       76.825     663.957     -18.844
  H       76.952     665.362     -17.744
  H       83.295     662.793     -22.006
  H       84.042     664.295     -22.496
  H       83.207     663.309     -23.673

 3  4  5  6  7  8  9  10  11  12  13  21  23  27  28  29  30  32 0
 6-311+G(2d,p)
 ****
 34  35 0
 6-311+G(2d,p)
 ****
 1  2  14  15  16  17  18  19  20  22  24  25  26 0
 3-21G
 ****
 31  33  36  37  38  39  40  41  42  43  44  45  46 0
 3-21G
 ****


