%nproc=1
%NoSave
%Mem=1900MB
#P OB98/GEN NMR

erre ene a

0 1
  C     -507.269     179.015      11.928
  O     -507.805     177.922      12.654
  H     -507.973     179.293      11.141
  H     -506.318     178.732      11.470
  H     -507.130     179.874      12.596
  P     -506.929     177.378      13.881
  C     -506.667     174.977      12.952
  O     -507.261     175.809      13.936
  C     -507.518     173.729      12.721
  O     -507.574     172.931      13.916
  C     -508.968     174.016      12.341
  O     -509.080     174.326      10.962
  C     -509.617     172.682      12.675
  O     -509.370     171.740      11.612
  C     -508.857     172.247      13.945
  N     -511.548     170.324      17.874
  C     -511.175     169.782      16.694
  N     -510.499     170.366      15.677
  C     -510.199     171.643      15.975
  C     -510.517     172.328      17.141
  C     -511.213     171.610      18.129
  N     -511.588     172.158      19.340
  N     -510.052     173.627      17.086
  C     -509.422     173.706      15.935
  N     -509.516     172.544      15.205
  O     -507.064     178.133      15.161
  O     -505.461     177.392      13.238
  H     -509.855     170.921      11.826
  H     -505.495     177.115      12.305
  H     -511.456     168.741      16.546
  H     -508.868     174.573      15.583
  H     -508.656     171.170      13.949
  H     -510.700     172.763      12.785
  H     -509.398     174.795      12.980
  H     -507.027     173.121      11.949
  H     -505.655     174.686      13.246
  H     -512.227     171.630      19.914
  H     -511.445     173.152      19.472
  H     -506.599     175.562      12.026
  P     -509.213     175.845      10.478
  C     -511.436     175.408       9.248
  O     -510.083     175.814       9.121
  O     -507.933     176.595      10.375
  O     -510.217     176.521      11.528
  H     -509.944     177.435      11.724
  H     -511.906     175.428       8.287
  H     -511.948     176.075       9.909
  H     -511.475     174.415       9.644

 6  7  8  9  10  11  12  13  14  15  25  28  32  33  34  35 0
 6-311+G(2d,p)
 ****
 36  39  40 0
 6-311+G(2d,p)
 ****
 1  2  3  4  5  16  17  18  19  20  21  22  23  24 0
 3-21G
 ****
 26  27  29  30  31  37  38  41  42  43  44  45  46  47 0
 3-21G
 ****
 48 0
 3-21G
 ****


