%nproc=1
%NoSave
%Mem=1900MB
#P OB98/GEN NMR

erre ene a

0 1
  C       65.411    -898.910     640.102
  O       64.532    -898.230     639.220
  H       65.301    -900.000     639.904
  H       65.135    -898.720     641.137
  H       66.444    -898.630     639.919
  P       64.542    -896.630     639.221
  C       62.556    -896.500     640.862
  O       63.924    -896.140     640.632
  C       62.004    -895.710     642.046
  O       62.586    -894.380     642.032
  C       60.482    -895.560     642.031
  O       59.989    -895.640     643.361
  C       60.252    -894.160     641.495
  O       59.031    -893.580     641.927
  C       61.493    -893.430     642.045
  N       60.188    -888.650     641.032
  C       59.684    -889.540     641.978
  N       58.657    -889.100     642.732
  N       60.157    -890.750     642.135
  C       61.180    -891.060     641.323
  C       61.778    -890.270     640.346
  C       61.250    -888.930     640.163
  O       61.633    -888.090     639.351
  N       62.778    -890.940     639.708
  C       62.792    -892.150     640.269
  N       61.835    -892.260     641.243
  O       63.928    -895.980     638.021
  O       66.101    -896.260     639.367
  H       59.146    -893.320     642.866
  H       66.480    -896.020     638.496
  H       59.806    -887.740     640.931
  H       63.452    -892.940     640.005
  H       61.350    -893.070     643.069
  H       60.273    -894.160     640.388
  H       58.274    -888.160     642.655
  H       59.986    -896.310     641.378
  H       58.282    -889.740     643.446
  H       62.336    -896.200     642.964
  H       62.503    -897.570     641.072
  H       61.979    -896.290     639.940
  P       59.519    -897.080     643.918
  C       57.007    -896.720     643.611
  O       58.141    -897.480     643.219
  O       59.572    -897.240     645.425
  O       60.591    -898.090     643.219
  H       60.731    -898.850     643.804
  H       56.144    -897.070     643.085
  H       57.172    -895.688     643.380
  H       56.851    -896.829     644.664

 6  7  8  9  10  11  12  13  14  15  26  29  33  34 0
 6-311+G(2d,p)
 ****
 36  38  39  40  41 0
 6-311+G(2d,p)
 ****
 1  2  3  4  5  16  17  18  19  20  21  22  23  24  25 0
 3-21G
 ****
 27  28  30  31  32  35  37  42  43  44  45  46  47 0
 3-21G
 ****
 48  49 0
 3-21G
 ****


