%nproc=1
%NoSave
%Mem=1900MB
#P OB98/GEN NMR

erre ene a

0 1
  C      239.665     802.717    -109.520
  O      240.283     801.553    -110.027
  H      238.979     802.426    -108.724
  H      239.094     803.212    -110.311
  H      240.409     803.406    -109.111
  P      241.467     801.712    -111.102
  C      240.671     799.686    -112.483
  O      241.733     800.260    -111.725
  C      241.049     798.270    -112.914
  O      242.137     798.307    -113.856
  C      241.540     797.389    -111.761
  O      240.472     796.953    -110.947
  C      242.255     796.294    -112.535
  O      241.336     795.305    -113.005
  C      242.880     797.073    -113.710
  N      244.301     797.334    -113.500
  C      245.176     796.698    -114.375
  O      244.813     795.941    -115.282
  N      246.515     796.885    -114.125
  C      247.035     797.519    -113.032
  O      248.223     797.457    -112.721
  C      246.067     798.232    -112.186
  C      244.772     798.099    -112.448
  O      242.687     802.428    -110.615
  O      240.771     802.497    -112.313
  H      241.030     803.439    -112.279
  H      240.803     795.739    -113.704
  H      247.155     796.384    -114.728
  H      246.449     798.812    -111.352
  H      244.025     798.592    -111.819
  H      242.752     796.521    -114.650
  H      242.996     795.778    -111.903
  H      242.276     797.945    -111.162
  H      240.180     797.815    -113.410
  H      240.502     800.303    -113.378
  H      239.761     799.684    -111.874
  P      240.303     797.528    -109.462
  C      240.285     795.342    -108.092
  O      239.514     796.435    -108.585
  O      239.761     798.916    -109.371
  O      241.789     797.459    -108.852
  H      242.007     798.321    -108.455
  H      239.655     794.687    -107.528
  H      241.068     795.712    -107.464
  H      240.711     794.806    -108.914

 6  7  8  9  10  11  12  13  14  15  16  27  31  32  33  34  35 0
 6-311+G(2d,p)
 ****
 36  37 0
 6-311+G(2d,p)
 ****
 1  2  3  4  5  17  18  19  20  21  22  23  24  25 0
 3-21G
 ****
 26  28  29  30  38  39  40  41  42  43  44  45 0
 3-21G
 ****


