%nproc=1
%NoSave
%Mem=1900MB
#P OB98/GEN NMR

erre ene a

0 1
  C      146.861      86.198    -312.850
  O      145.569      86.786    -312.901
  P      144.323      86.115    -312.146
  C      143.463      84.844    -314.211
  O      144.060      84.738    -312.926
  C      143.250      83.457    -314.810
  O      144.545      82.840    -315.001
  C      142.463      82.469    -313.946
  O      141.052      82.582    -314.064
  C      142.914      81.143    -314.550
  O      142.202      80.902    -315.777
  C      144.394      81.408    -314.836
  N      146.894      77.384    -312.893
  C      146.137      77.528    -314.007
  N      145.487      78.629    -314.445
  C      145.720      79.672    -313.626
  C      146.471      79.678    -312.464
  C      147.079      78.462    -312.101
  N      147.868      78.324    -310.978
  N      146.459      80.930    -311.882
  C      145.721      81.663    -312.691
  N      145.262      80.951    -313.763
  O      143.140      87.006    -311.990
  O      144.925      85.629    -310.746
  H      141.285      80.676    -315.531
  H      144.201      85.449    -310.117
  H      146.028      76.640    -314.625
  H      145.496      82.709    -312.538
  H      144.736      80.935    -315.766
  H      142.718      80.290    -313.892
  H      142.781      82.515    -312.896
  H      142.781      83.572    -315.795
  H      144.138      85.418    -314.857
  H      148.366      77.456    -310.868
  H      148.137      79.161    -310.479
  H      142.518      85.389    -314.132
  P      140.167      81.990    -312.854
  C      139.755      79.653    -313.962
  O      140.354      80.399    -312.922
  O      138.760      82.472    -312.828
  O      141.014      82.402    -311.562
  H      141.875      81.963    -311.469
  H      140.130      78.628    -313.923
  H      140.003      80.078    -314.942
  H      138.668      79.637    -313.835
  H      147.547      86.795    -313.414
  H      146.821      85.213    -313.265
  H      147.188      86.143    -311.833

 3  4  5  6  7  8  9  10  11  12  22  25  29  30  31  32 0
 6-311+G(2d,p)
 ****
 33  36  37 0
 6-311+G(2d,p)
 ****
 1  2  13  14  15  16  17  18  19  20  21  23  24  26 0
 3-21G
 ****
 27  28  34  35  38  39  40  41  42  43  44  45  46  47  48 0
 3-21G
 ****


