%nproc=1
%NoSave
%Mem=1900MB
#P OB98/GEN NMR

erre ene a

0 1
  C      695.886     306.429     392.500
  O      695.026     307.505     392.189
  H      695.451     305.505     392.113
  H      695.993     306.339     393.587
  H      696.867     306.581     392.043
  P      695.594     308.976     392.472
  C      695.599     310.595     394.539
  O      695.377     309.284     394.039
  C      694.957     310.745     395.915
  O      693.522     310.836     395.804
  C      695.170     309.558     396.835
  O      696.491     309.479     397.331
  C      694.141     309.850     397.921
  O      694.649     310.755     398.908
  C      692.995     310.507     397.111
  N      691.828     309.649     397.033
  C      690.867     309.845     398.049
  O      691.051     310.705     398.907
  N      689.768     309.033     398.080
  C      689.646     308.086     397.187
  N      688.543     307.290     397.303
  C      690.624     307.852     396.110
  C      691.678     308.660     396.092
  O      694.500     309.906     391.763
  O      696.993     309.208     392.003
  H      694.981     311.537     398.417
  H      693.586     309.689     391.999
  H      690.460     307.061     395.396
  H      692.447     308.553     395.336
  H      692.696     311.454     397.577
  H      693.841     308.942     398.448
  H      694.882     308.628     396.330
  H      695.333     311.678     396.371
  H      687.925     307.460     398.084
  H      695.202     311.344     393.847
  H      688.379     306.482     396.719
  H      696.683     310.748     394.601
  P      697.224     308.073     397.539
  C      697.996     306.646     399.546
  O      697.325     307.837     399.129
  O      698.517     307.903     396.818
  O      696.094     307.011     397.125
  H      695.277     307.060     397.642
  H      698.002     306.596     400.615
  H      699.003     306.658     399.184
  H      697.486     305.792     399.152

 6  7  8  9  10  11  12  13  14  15  16  26  30  31  32  33  35 0
 6-311+G(2d,p)
 ****
 37  38 0
 6-311+G(2d,p)
 ****
 1  2  3  4  5  17  18  19  20  21  22  23  24  25 0
 3-21G
 ****
 27  28  29  34  36  39  40  41  42  43  44  45  46 0
 3-21G
 ****


