%nproc=1
%NoSave
%Mem=1900MB
#P OB98/GEN NMR

erre ene a

0 1
  C       67.529     234.129     191.508
  O       67.774     232.737     191.614
  P       66.776     231.798     192.446
  C       65.920     231.740     194.879
  O       66.812     232.354     193.953
  C       66.692     231.140     196.059
  O       67.421     229.967     195.647
  C       67.727     232.080     196.666
  O       67.099     233.053     197.489
  C       68.615     231.092     197.417
  O       68.056     230.760     198.696
  C       68.602     229.865     196.481
  N       69.821     229.757     195.681
  C       70.470     228.515     195.721
  O       70.025     227.611     196.426
  N       71.633     228.357     195.001
  C       72.106     229.356     194.317
  N       73.269     229.134     193.631
  C       71.468     230.685     194.277
  C       70.342     230.817     194.973
  O       67.020     230.329     192.301
  O       65.329     232.255     191.929
  H       67.225     230.269     198.514
  H       65.146     231.917     191.015
  H       71.912     231.490     193.701
  H       69.812     231.763     194.998
  H       68.486     228.938     197.058
  H       69.619     231.499     197.594
  H       68.306     232.559     195.868
  H       65.963     230.839     196.826
  H       73.684     228.218     193.715
  H       65.380     230.941     194.359
  H       73.740     229.850     193.102
  H       65.189     232.476     195.231
  P       67.578     234.575     197.427
  C       69.795     235.769     197.965
  O       68.925     234.706     198.299
  O       66.526     235.593     197.722
  O       68.119     234.741     195.920
  H       67.786     235.587     195.558
  H       70.462     235.953     198.812
  H       69.229     236.683     197.749
  H       70.386     235.494     197.091
  H       68.298     234.583     190.918
  H       67.524     234.566     192.485
  H       66.580     234.290     191.041

 3  4  5  6  7  8  9  10  11  12  13  23  27  28  29  30  32 0
 6-311+G(2d,p)
 ****
 34  35 0
 6-311+G(2d,p)
 ****
 1  2  14  15  16  17  18  19  20  21  22  24  25  26 0
 3-21G
 ****
 31  33  36  37  38  39  40  41  42  43  44  45  46 0
 3-21G
 ****


