%nproc=1
%NoSave
%Mem=1900MB
#P OB98/GEN NMR

erre ene a

0 1
  C      505.568     547.862     297.365
  O      504.217     548.079     297.014
  H      506.009     547.164     296.645
  H      505.639     547.426     298.364
  H      506.124     548.800     297.327
  P      503.317     549.013     297.954
  C      502.309     546.980     299.186
  O      503.054     548.193     299.307
  C      501.944     546.447     300.577
  O      503.183     546.246     301.309
  C      501.067     547.427     301.379
  O      499.872     546.830     301.882
  C      502.042     548.026     302.387
  O      501.441     548.499     303.580
  C      503.062     546.908     302.591
  N      504.378     547.372     303.045
  C      504.593     547.421     304.423
  O      503.775     547.084     305.279
  N      505.825     547.882     304.806
  C      506.826     548.294     303.982
  O      507.914     548.692     304.384
  C      506.533     548.235     302.540
  C      505.334     547.785     302.142
  O      502.087     549.583     297.315
  O      504.318     550.174     298.430
  H      502.150     548.712     304.211
  H      504.145     550.981     297.913
  H      505.995     547.914     305.798
  H      507.298     548.567     301.854
  H      505.080     547.723     301.087
  H      502.699     546.173     303.313
  H      502.539     548.885     301.919
  H      500.690     548.230     300.734
  H      501.465     545.471     300.468
  H      502.931     546.260     298.651
  H      501.395     547.168     298.609
  P      498.397     547.268     301.475
  C      497.300     548.656     303.418
  O      498.062     548.643     302.213
  O      497.356     546.197     301.543
  O      498.552     547.694     299.923
  H      497.705     547.469     299.483
  H      497.183     549.665     303.755
  H      497.808     548.086     304.167
  H      496.337     548.227     303.236

 6  7  8  9  10  11  12  13  14  15  16  26  31  32  33  34  35 0
 6-311+G(2d,p)
 ****
 36  37 0
 6-311+G(2d,p)
 ****
 1  2  3  4  5  17  18  19  20  21  22  23  24  25 0
 3-21G
 ****
 27  28  29  30  38  39  40  41  42  43  44  45 0
 3-21G
 ****


