%nproc=1
%NoSave
%Mem=1900MB
#P OB98/GEN NMR

erre ene a

0 1
  C      256.435     113.098    -159.776
  O      257.512     112.644    -158.981
  H      255.492     112.986    -159.233
  H      256.587     114.156    -160.003
  H      256.394     112.538    -160.715
  P      257.491     111.095    -158.561
  C      255.981     109.657    -157.017
  O      256.389     110.961    -157.402
  C      254.750     109.737    -156.119
  O      253.601     110.154    -156.884
  C      254.351     108.417    -155.465
  O      255.148     108.129    -154.326
  C      252.910     108.717    -155.077
  O      252.887     109.506    -153.872
  C      252.428     109.560    -156.267
  N      247.832     107.884    -157.771
  C      248.209     108.705    -156.766
  N      249.452     109.121    -156.442
  C      250.357     108.616    -157.293
  C      250.125     107.785    -158.377
  C      248.791     107.408    -158.606
  N      248.425     106.511    -159.598
  N      251.310     107.460    -159.008
  C      252.242     108.070    -158.305
  N      251.714     108.787    -157.265
  O      258.884     110.919    -157.787
  O      257.362     110.131    -159.694
  H      253.367     108.996    -153.193
  H      259.547     110.552    -158.401
  H      247.406     109.074    -156.136
  H      253.302     108.019    -158.509
  H      251.776     110.383    -155.954
  H      252.320     107.817    -154.886
  H      254.363     107.592    -156.186
  H      254.938     110.506    -155.357
  H      256.795     109.166    -156.472
  H      247.588     105.980    -159.375
  H      249.199     105.997    -160.002
  H      255.756     109.080    -157.919
  P      255.191     106.611    -153.809
  C      253.552     105.019    -152.597
  O      253.751     106.307    -153.165
  O      256.166     106.696    -152.542
  O      255.681     105.614    -154.802
  H      256.908     106.070    -152.655
  H      252.558     104.951    -152.207
  H      254.257     104.865    -151.807
  H      253.692     104.272    -153.350

 6  7  8  9  10  11  12  13  14  15  25  28  32  33  34  35 0
 6-311+G(2d,p)
 ****
 36  39  40 0
 6-311+G(2d,p)
 ****
 1  2  3  4  5  16  17  18  19  20  21  22  23  24 0
 3-21G
 ****
 26  27  29  30  31  37  38  41  42  43  44  45  46  47  48 0
 3-21G
 ****


