%nproc=1
%NoSave
%Mem=1900MB
#P OB98/GEN NMR

erre ene a

0 1
  C     -107.005     301.958      48.049
  O     -107.751     303.124      48.348
  H     -105.940     302.208      48.076
  H     -107.254     301.597      47.046
  H     -107.208     301.180      48.791
  P     -109.349     302.960      48.377
  C     -109.301     303.396      45.826
  O     -109.732     302.542      46.875
  C     -110.073     303.095      44.542
  O     -109.498     303.799      43.424
  C     -110.078     301.620      44.142
  O     -111.051     300.900      44.879
  C     -110.451     301.727      42.671
  O     -111.871     301.920      42.540
  C     -109.705     303.004      42.228
  N     -106.921     303.749      37.978
  C     -108.234     303.955      38.239
  N     -108.912     303.692      39.377
  C     -108.100     303.163      40.307
  C     -106.746     302.902      40.184
  C     -106.145     303.223      38.947
  N     -104.809     303.023      38.687
  N     -106.242     302.351      41.345
  C     -107.261     302.340      42.174
  N     -108.422     302.788      41.584
  O     -110.104     304.106      48.963
  O     -109.499     301.575      49.167
  H     -112.095     301.828      41.597
  H     -108.799     300.951      48.899
  H     -108.813     304.387      37.429
  H     -107.221     302.030      43.216
  H     -110.303     303.602      41.529
  H     -110.202     300.820      42.110
  H     -109.082     301.179      44.230
  H     -111.099     303.465      44.672
  H     -108.227     303.273      45.651
  H     -104.498     303.119      37.737
  H     -104.259     302.518      39.373
  H     -109.487     304.426      46.143
  P     -110.829     299.354      45.245
  C     -112.046     298.763      43.053
  O     -110.890     298.544      43.862
  O     -111.717     298.823      46.317
  O     -109.282     299.262      45.648
  H     -109.166     298.643      46.393
  H     -111.975     298.174      42.163
  H     -112.107     299.799      42.791
  H     -112.922     298.481      43.599

 6  7  8  9  10  11  12  13  14  15  25  28  32  33  34  35 0
 6-311+G(2d,p)
 ****
 36  39  40 0
 6-311+G(2d,p)
 ****
 1  2  3  4  5  16  17  18  19  20  21  22  23  24 0
 3-21G
 ****
 26  27  29  30  31  37  38  41  42  43  44  45  46  47 0
 3-21G
 ****
 48 0
 3-21G
 ****


