%nproc=1
%NoSave
%Mem=1900MB
#P OB98/GEN NMR

erre ene a

0 1
  C      377.973     -38.267      27.158
  O      376.782     -37.514      26.959
  P      376.865     -35.920      27.078
  C      375.950     -36.038      29.504
  O      376.984     -35.570      28.642
  C      376.370     -35.927      30.972
  O      377.561     -36.731      31.188
  C      376.692     -34.503      31.438
  O      376.312     -34.407      32.813
  C      378.210     -34.446      31.342
  O      378.768     -33.414      32.152
  C      378.564     -35.869      31.775
  N      383.460     -36.392      33.151
  C      382.371     -35.998      33.845
  N      381.099     -35.884      33.407
  C      381.006     -36.226      32.111
  C      382.039     -36.616      31.271
  C      383.320     -36.701      31.841
  N      384.435     -37.113      31.142
  N      381.560     -36.858      29.997
  C      380.265     -36.622      30.071
  N      379.884     -36.262      31.335
  O      375.377     -35.461      26.702
  O      377.873     -35.266      26.198
  H      378.409     -32.561      31.847
  H      375.375     -34.997      25.846
  H      382.543     -35.742      34.889
  H      379.570     -36.695      29.245
  H      378.518     -35.992      32.861
  H      378.510     -34.256      30.302
  H      376.206     -33.718      30.851
  H      375.571     -36.359      31.590
  H      375.753     -37.089      29.274
  H      385.290     -37.279      31.651
  H      384.310     -37.523      30.219
  H      375.039     -35.463      29.330
  P      375.234     -33.277      33.194
  C      377.228     -31.665      33.608
  O      375.963     -31.864      33.005
  O      375.087     -33.425      34.782
  O      373.919     -33.436      32.504
  H      374.200     -33.135      35.066
  H      377.823     -31.008      32.972
  H      377.768     -32.614      33.738
  H      377.089     -31.197      34.584
  H      377.759     -39.309      27.047
  H      378.351     -38.083      28.142
  H      378.705     -37.974      26.435

 3  4  5  6  7  8  9  10  11  12  22  25  29  30  31  32 0
 6-311+G(2d,p)
 ****
 33  36  37 0
 6-311+G(2d,p)
 ****
 1  2  13  14  15  16  17  18  19  20  21  23  24  26 0
 3-21G
 ****
 27  28  34  35  38  39  40  41  42  43  44  45  46  47  48 0
 3-21G
 ****


