%nproc=1
%NoSave
%Mem=1900MB
#P OB98/GEN NMR

erre ene a

0 1
  C      416.303     113.313     -41.154
  O      416.497     112.386     -42.237
  P      417.074     112.812     -43.673
  C      415.673     111.558     -45.456
  O      415.865     112.769     -44.729
  C      415.029     111.834     -46.816
  O      413.697     112.366     -46.644
  C      415.738     112.878     -47.667
  O      416.947     112.394     -48.227
  C      414.654     113.205     -48.698
  O      414.665     112.269     -49.783
  C      413.362     113.048     -47.877
  N      412.698     114.316     -47.606
  C      411.490     114.544     -48.278
  O      411.079     113.738     -49.107
  N      410.796     115.691     -47.993
  C      411.308     116.579     -47.197
  N      410.564     117.693     -46.943
  C      412.637     116.437     -46.579
  C      413.271     115.291     -46.822
  O      418.272     112.029     -44.099
  O      417.417     114.372     -43.544
  H      418.124     114.603     -44.177
  H      414.366     111.409     -49.420
  H      413.046     117.223     -45.959
  H      414.249     115.098     -46.396
  H      412.664     112.376     -48.394
  H      414.788     114.201     -49.134
  H      415.938     113.767     -47.058
  H      414.961     110.880     -47.361
  H      409.650     117.753     -47.375
  H      415.007     110.905     -44.874
  H      410.858     118.434     -46.324
  H      416.636     111.049     -45.572
  P      418.297     113.165     -47.819
  C      419.199     113.979     -50.114
  O      418.544     114.317     -48.902
  O      419.444     112.090     -48.126
  O      418.342     113.620     -46.400
  H      420.135     112.140     -47.433
  H      418.875     114.671     -50.895
  H      418.967     112.958     -50.430
  H      420.277     114.080     -49.979
  H      415.910     112.793     -40.305
  H      415.615     114.075     -41.455
  H      417.240     113.761     -40.896

 3  4  5  6  7  8  9  10  11  12  13  24  27  28  29  30  32 0
 6-311+G(2d,p)
 ****
 34  35 0
 6-311+G(2d,p)
 ****
 1  2  14  15  16  17  18  19  20  21  22  23  25  26 0
 3-21G
 ****
 31  33  36  37  38  39  40  41  42  43  44  45  46 0
 3-21G
 ****


