%nproc=1
%NoSave
%Mem=1900MB
#P OB98/GEN NMR

erre ene a

0 1
  C     -425.349     645.144      97.261
  O     -424.431     645.439      96.232
  H     -424.810     645.042      98.204
  H     -425.862     644.197      97.049
  H     -426.093     645.943      97.362
  P     -425.048     645.826      94.801
  C     -423.445     647.860      94.620
  O     -423.916     646.655      94.028
  C     -422.831     648.774      93.548
  O     -423.787     649.007      92.488
  C     -422.423     650.146      94.066
  O     -421.143     650.124      94.691
  C     -422.380     650.935      92.758
  O     -421.173     650.610      92.043
  C     -423.606     650.367      92.017
  N     -426.387     654.349      90.564
  C     -425.162     653.906      90.099
  N     -424.591     654.628      89.109
  N     -424.551     652.852      90.567
  C     -425.233     652.227      91.561
  C     -426.450     652.580      92.105
  C     -427.124     653.747      91.581
  O     -428.213     654.167      91.935
  N     -426.822     651.710      93.089
  C     -425.823     650.836      93.158
  N     -424.832     651.126      92.255
  O     -426.139     646.947      95.160
  O     -425.662     644.701      94.036
  H     -421.275     650.960      91.133
  H     -426.902     646.847      94.561
  H     -426.808     655.184      90.184
  H     -425.776     650.001      93.839
  H     -423.457     650.334      90.936
  H     -422.386     652.009      92.919
  H     -424.985     655.483      88.746
  H     -423.194     650.580      94.719
  H     -423.711     654.301      88.727
  H     -421.977     648.247      93.119
  H     -422.678     647.625      95.368
  H     -424.291     648.372      95.111
  P     -420.831     651.245      95.798
  C     -418.926     649.600      96.421
  O     -419.334     650.947      96.299
  O     -421.731     650.791      97.036
  O     -421.122     652.647      95.376
  H     -421.925     651.558      97.618
  H     -417.912     649.564      96.762
  H     -418.999     649.117      95.469
  H     -419.557     649.098      97.125

 6  7  8  9  10  11  12  13  14  15  26  29  33  34 0
 6-311+G(2d,p)
 ****
 36  38  39  40  41 0
 6-311+G(2d,p)
 ****
 1  2  3  4  5  16  17  18  19  20  21  22  23  24  25 0
 3-21G
 ****
 27  28  30  31  32  35  37  42  43  44  45  46  47 0
 3-21G
 ****
 48  49 0
 3-21G
 ****


