%nproc=1
%NoSave
%Mem=1900MB
#P OB98/GEN NMR

erre ene a

0 1
  C     -277.430    -525.001    -134.233
  O     -278.614    -525.759    -134.471
  P     -280.038    -525.040    -134.283
  C     -280.911    -525.142    -136.782
  O     -280.496    -524.386    -135.664
  C     -282.425    -524.985    -136.971
  O     -282.783    -523.584    -136.988
  C     -282.944    -525.600    -138.270
  O     -283.243    -526.972    -138.129
  C     -284.161    -524.743    -138.552
  O     -285.272    -525.152    -137.724
  C     -283.656    -523.338    -138.128
  N     -282.916    -522.535    -139.123
  C     -283.540    -522.156    -140.310
  O     -284.693    -522.455    -140.617
  N     -282.786    -521.395    -141.168
  C     -281.565    -520.833    -140.901
  O     -280.968    -520.114    -141.686
  C     -281.022    -521.143    -139.575
  C     -281.694    -521.971    -138.766
  O     -279.709    -523.786    -133.355
  O     -281.099    -525.921    -133.685
  H     -284.895    -525.492    -136.892
  H     -280.159    -523.872    -132.494
  H     -283.198    -521.178    -142.068
  H     -280.081    -520.686    -139.300
  H     -281.294    -522.198    -137.784
  H     -284.492    -522.721    -137.776
  H     -284.500    -524.860    -139.587
  H     -282.223    -525.432    -139.076
  H     -282.934    -525.453    -136.109
  H     -280.662    -526.201    -136.655
  H     -280.379    -524.800    -137.674
  P     -283.284    -527.914    -139.430
  C     -281.268    -529.424    -138.923
  O     -281.760    -528.350    -139.697
  O     -284.024    -527.376    -140.603
  O     -283.938    -529.276    -138.878
  H     -284.907    -529.295    -139.059
  H     -280.289    -529.723    -139.315
  H     -281.951    -530.286    -138.989
  H     -281.159    -529.119    -137.884
  H     -276.572    -525.618    -134.400
  H     -277.427    -524.652    -133.222
  H     -277.402    -524.164    -134.899

 3  4  5  6  7  8  9  10  11  12  13  23  28  29  30  31  32 0
 6-311+G(2d,p)
 ****
 33  34 0
 6-311+G(2d,p)
 ****
 1  2  14  15  16  17  18  19  20  21  22  24  25  26  27 0
 3-21G
 ****
 35  36  37  38  39  40  41  42  43  44  45 0
 3-21G
 ****


