%nproc=1
%NoSave
%Mem=1900MB
#P OB98/GEN NMR

erre ene a

0 1
  C      596.963     136.902     -62.308
  O      595.702     137.422     -61.909
  P      595.371     138.992     -62.010
  C      596.997     139.334     -60.023
  O      595.710     139.590     -60.554
  C      597.173     140.054     -58.681
  O      598.484     139.727     -58.149
  C      597.067     141.575     -58.761
  O      596.443     142.027     -57.552
  C      598.515     142.018     -58.820
  O      598.694     143.371     -58.407
  C      599.162     140.974     -57.904
  N      600.599     140.844     -58.133
  C      601.445     141.790     -57.525
  O      600.984     142.703     -56.853
  N      602.801     141.668     -57.711
  C      603.271     140.743     -58.495
  N      604.619     140.622     -58.598
  C      602.407     139.797     -59.245
  C      601.107     139.896     -58.997
  O      594.012     139.312     -62.512
  O      596.558     139.593     -62.893
  H      599.603     143.639     -58.644
  H      596.389     139.513     -63.868
  H      602.840     139.070     -59.911
  H      600.391     139.230     -59.472
  H      598.981     141.229     -56.849
  H      598.886     141.924     -59.852
  H      596.467     141.923     -59.621
  H      596.429     139.655     -57.976
  H      605.175     141.171     -57.941
  H      597.745     139.720     -60.726
  H      605.044     139.764     -58.916
  H      597.146     138.256     -59.918
  P      595.100     142.903     -57.657
  C      596.209     145.190     -58.204
  O      595.459     144.420     -57.284
  O      594.300     142.417     -56.349
  O      594.266     142.688     -58.880
  H      593.344     142.551     -56.502
  H      596.356     146.187     -57.788
  H      595.668     145.279     -59.145
  H      597.191     144.736     -58.376
  H      596.975     135.842     -62.160
  H      597.736     137.352     -61.721
  H      597.127     137.120     -63.343

 3  4  5  6  7  8  9  10  11  12  13  23  27  28  29  30  32 0
 6-311+G(2d,p)
 ****
 34  35 0
 6-311+G(2d,p)
 ****
 1  2  14  15  16  17  18  19  20  21  22  24  25  26 0
 3-21G
 ****
 31  33  36  37  38  39  40  41  42  43  44  45  46 0
 3-21G
 ****


