%nproc=1
%NoSave
%Mem=1900MB
#P OB98/GEN NMR

erre ene a

0 1
  C     -859.314    -348.746      80.301
  O     -859.205    -348.337      81.650
  P     -857.732    -348.073      82.236
  C     -857.946    -350.123      83.866
  O     -857.226    -349.469      82.829
  C     -857.975    -351.637      83.618
  O     -858.419    -351.902      82.271
  C     -856.622    -352.325      83.743
  O     -856.250    -352.517      85.097
  C     -856.882    -353.616      82.964
  O     -857.588    -354.564      83.795
  C     -857.804    -353.124      81.825
  N     -857.095    -352.931      80.561
  C     -857.225    -353.954      79.627
  O     -857.888    -354.972      79.822
  N     -856.531    -353.778      78.448
  C     -855.713    -352.737      78.153
  O     -855.082    -352.640      77.110
  C     -855.581    -351.702      79.201
  C     -856.276    -351.837      80.328
  O     -858.074    -347.181      83.517
  O     -856.821    -347.424      81.239
  H     -858.968    -347.376      83.861
  H     -857.732    -355.358      83.249
  H     -856.629    -354.493      77.745
  H     -854.933    -350.858      79.006
  H     -856.192    -351.099      81.114
  H     -858.616    -353.840      81.668
  H     -855.961    -354.095      82.628
  H     -855.863    -351.736      83.220
  H     -858.710    -352.074      84.309
  H     -858.973    -349.734      83.898
  H     -857.462    -349.900      84.827
  P     -855.181    -351.474      85.688
  C     -853.271    -353.227      85.377
  O     -853.742    -351.927      85.123
  O     -855.146    -351.912      87.244
  O     -855.529    -350.038      85.464
  H     -855.149    -352.869      87.355
  H     -852.494    -353.460      84.647
  H     -854.075    -353.978      85.302
  H     -852.835    -353.278      86.374
  H     -860.346    -348.883      80.052
  H     -858.789    -349.668      80.164
  H     -858.890    -347.997      79.666

 3  4  5  6  7  8  9  10  11  12  13  24  28  29  30  31  32 0
 6-311+G(2d,p)
 ****
 33  34 0
 6-311+G(2d,p)
 ****
 1  2  14  15  16  17  18  19  20  21  22  23  25  26  27 0
 3-21G
 ****
 35  36  37  38  39  40  41  42  43  44  45 0
 3-21G
 ****


