%nproc=1
%NoSave
%Mem=1900MB
#P OB98/GEN NMR

erre ene a

0 1
  C     -474.162     118.643     216.943
  O     -474.997     119.777     217.085
  H     -473.536     118.556     217.834
  H     -473.518     118.758     216.067
  H     -474.769     117.739     216.848
  P     -476.018     120.067     215.882
  C     -477.512     118.326     217.082
  O     -476.965     118.773     215.847
  C     -478.855     117.636     216.852
  O     -479.468     117.294     218.107
  C     -479.877     118.484     216.109
  O     -479.640     118.452     214.712
  C     -481.166     117.764     216.479
  O     -481.321     116.591     215.655
  C     -480.910     117.351     217.937
  N     -485.116     119.791     219.587
  C     -484.864     119.107     218.452
  N     -483.710     118.521     218.061
  C     -482.752     118.695     218.983
  C     -482.861     119.371     220.188
  C     -484.116     119.928     220.487
  N     -484.370     120.619     221.653
  N     -481.665     119.344     220.877
  C     -480.863     118.621     220.122
  N     -481.461     118.234     218.949
  O     -475.398     120.468     214.589
  O     -476.970     121.168     216.549
  H     -482.043     116.060     216.036
  H     -477.134     120.957     217.485
  H     -485.698     119.013     217.764
  H     -479.853     118.333     220.385
  H     -481.306     116.349     218.150
  H     -482.050     118.387     216.316
  H     -479.912     119.507     216.501
  H     -478.661     116.697     216.317
  H     -477.639     119.170     217.770
  H     -485.240     121.130     221.710
  H     -483.594     120.824     222.263
  H     -476.797     117.624     217.522
  P     -480.580     119.273     213.704
  C     -478.542     120.500     212.727
  O     -479.806     120.638     213.366
  O     -481.986     119.457     214.160
  O     -480.502     118.463     212.328
  H     -481.373     118.458     211.887
  H     -478.123     121.469     212.552
  H     -478.668     119.992     211.794
  H     -477.885     119.935     213.355

 6  7  8  9  10  11  12  13  14  15  25  28  32  33  34  35 0
 6-311+G(2d,p)
 ****
 36  39  40 0
 6-311+G(2d,p)
 ****
 1  2  3  4  5  16  17  18  19  20  21  22  23  24 0
 3-21G
 ****
 26  27  29  30  31  37  38  41  42  43  44  45  46  47 0
 3-21G
 ****
 48 0
 3-21G
 ****


