%nproc=1
%NoSave
%Mem=1900MB
#P OB98/GEN NMR

erre ene a

0 1
  C     -224.363      32.278      83.439
  O     -224.680      33.655      83.584
  P     -223.522      34.767      83.674
  C     -221.692      35.330      85.412
  O     -222.786      34.488      85.071
  C     -221.667      35.561      86.923
  O     -222.899      36.185      87.335
  C     -221.546      34.291      87.751
  O     -220.214      33.797      87.741
  C     -222.052      34.784      89.106
  O     -221.014      35.503      89.794
  C     -223.176      35.755      88.689
  N     -224.505      35.161      88.790
  C     -225.121      35.223      90.048
  O     -224.563      35.759      91.003
  N     -226.385      34.696      90.186
  C     -226.974      34.143      89.171
  N     -228.251      33.701      89.352
  C     -226.341      34.006      87.846
  C     -225.122      34.538      87.728
  O     -223.988      36.173      83.483
  O     -222.430      34.298      82.607
  H     -220.273      34.874      89.915
  H     -222.591      34.648      81.693
  H     -226.865      33.524      87.034
  H     -224.597      34.501      86.781
  H     -223.145      36.659      89.308
  H     -222.394      33.976      89.764
  H     -222.222      33.516      87.368
  H     -220.840      36.249      87.148
  H     -228.705      33.971      90.217
  H     -221.820      36.292      84.902
  H     -228.865      33.529      88.564
  H     -220.759      34.870      85.068
  P     -220.003      32.245      87.394
  C     -220.754      30.019      88.499
  O     -220.656      31.429      88.614
  O     -218.426      32.041      87.572
  O     -220.476      31.845      86.033
  H     -217.983      32.032      86.703
  H     -220.990      29.607      89.484
  H     -219.808      29.594      88.154
  H     -221.560      29.756      87.807
  H     -225.267      31.706      83.399
  H     -223.775      31.958      84.274
  H     -223.808      32.133      82.535

 3  4  5  6  7  8  9  10  11  12  13  23  27  28  29  30  32 0
 6-311+G(2d,p)
 ****
 34  35 0
 6-311+G(2d,p)
 ****
 1  2  14  15  16  17  18  19  20  21  22  24  25  26 0
 3-21G
 ****
 31  33  36  37  38  39  40  41  42  43  44  45  46 0
 3-21G
 ****


