%nproc=1
%NoSave
%Mem=1900MB
#P OB98/GEN NMR

erre ene a

0 1
  C      102.505    -386.878    -184.141
  O      103.530    -386.107    -184.740
  H      102.851    -387.913    -184.064
  H      101.601    -386.860    -184.760
  H      102.282    -386.510    -183.137
  P      103.267    -384.541    -184.973
  C      101.092    -383.201    -185.420
  O      101.740    -384.468    -185.468
  C      100.196    -383.018    -186.642
  O       99.172    -384.034    -186.702
  C       99.432    -381.699    -186.682
  O      100.240    -380.581    -186.996
  C       98.427    -382.018    -187.782
  O       99.082    -381.957    -189.063
  C       98.040    -383.466    -187.419
  N       96.831    -383.537    -186.595
  C       95.646    -383.079    -187.184
  O       95.645    -382.636    -188.332
  N       94.480    -383.099    -186.447
  C       94.509    -383.518    -185.216
  N       93.335    -383.510    -184.526
  C       95.740    -383.992    -184.548
  C       96.849    -383.976    -185.290
  O      104.263    -383.831    -185.840
  O      103.157    -383.928    -183.498
  H       99.843    -382.563    -189.022
  H      103.003    -382.955    -183.586
  H       95.712    -384.305    -183.515
  H       97.791    -384.303    -184.866
  H       97.890    -384.072    -188.321
  H       97.592    -381.322    -187.811
  H       98.881    -381.539    -185.745
  H      100.831    -383.148    -187.533
  H       92.509    -383.179    -185.010
  H      101.863    -382.427    -185.373
  H       93.274    -383.749    -183.545
  H      100.470    -383.140    -184.520
  P       99.882    -379.196    -186.255
  C       97.896    -377.504    -186.417
  O       98.435    -378.754    -186.804
  O      100.885    -378.152    -186.933
  O       99.994    -379.225    -184.761
  H      101.667    -378.006    -186.362
  H       96.936    -377.374    -186.870
  H       98.550    -376.719    -186.736
  H       97.795    -377.473    -185.352

 6  7  8  9  10  11  12  13  14  15  16  26  30  31  32  33  35 0
 6-311+G(2d,p)
 ****
 37  38 0
 6-311+G(2d,p)
 ****
 1  2  3  4  5  17  18  19  20  21  22  23  24  25 0
 3-21G
 ****
 27  28  29  34  36  39  40  41  42  43  44  45  46 0
 3-21G
 ****


