%nproc=1
%NoSave
%Mem=1900MB
#P OB98/GEN NMR

erre ene a

0 1
  C      -38.090     -34.248      30.023
  O      -37.922     -33.408      28.874
  P      -39.142     -33.064      27.889
  C      -39.389     -30.566      28.425
  O      -39.075     -31.526      27.422
  C      -38.869     -29.158      28.098
  O      -37.414     -29.126      28.102
  C      -39.320     -28.600      26.741
  O      -39.413     -27.184      26.908
  C      -38.142     -28.957      25.846
  O      -38.093     -28.199      24.645
  C      -36.979     -28.694      26.799
  N      -32.786     -28.497      23.858
  C      -33.706     -27.560      24.175
  N      -34.772     -27.676      24.995
  C      -34.823     -28.900      25.545
  C      -33.949     -29.958      25.329
  C      -32.895     -29.724      24.426
  N      -31.981     -30.689      24.064
  N      -34.340     -31.073      26.045
  C      -35.435     -30.698      26.680
  N      -35.766     -29.390      26.412
  O      -40.482     -33.486      28.403
  O      -38.801     -33.872      26.545
  H      -38.157     -27.252      24.877
  H      -39.604     -34.330      26.233
  H      -33.572     -26.589      23.705
  H      -36.036     -31.327      27.319
  H      -36.747     -27.622      26.860
  H      -38.210     -30.018      25.568
  H      -40.264     -29.015      26.390
  H      -39.196     -28.491      28.910
  H      -38.954     -30.903      29.379
  H      -31.317     -30.456      23.344
  H      -32.118     -31.641      24.378
  H      -40.477     -30.531      28.552
  P      -40.771     -26.386      26.606
  C      -41.851     -26.016      28.898
  O      -41.045     -25.450      27.879
  O      -41.925     -27.243      26.196
  O      -40.377     -25.342      25.457
  H      -41.190     -25.034      25.005
  H      -42.902     -26.006      28.589
  H      -41.738     -25.427      29.810
  H      -41.546     -27.048      29.110
  H      -37.155     -34.344      30.535
  H      -38.427     -35.215      29.712
  H      -38.813     -33.813      30.680

 3  4  5  6  7  8  9  10  11  12  22  25  29  30  31  32 0
 6-311+G(2d,p)
 ****
 33  36  37 0
 6-311+G(2d,p)
 ****
 1  2  13  14  15  16  17  18  19  20  21  23  24  26 0
 3-21G
 ****
 27  28  34  35  38  39  40  41  42  43  44  45  46  47  48 0
 3-21G
 ****


