%nproc=1
%NoSave
%Mem=1900MB
#P OB98/GEN NMR

erre ene a

0 1
  C      -35.906     121.824     -78.011
  O      -35.576     121.386     -79.315
  H      -36.880     121.409     -77.738
  H      -35.968     122.915     -77.985
  H      -35.159     121.473     -77.296
  P      -34.160     121.871     -79.895
  C      -32.914     119.860     -78.845
  O      -33.086     121.270     -78.866
  C      -31.443     119.498     -79.039
  O      -30.642     120.049     -77.981
  C      -31.160     118.000     -79.037
  O      -31.452     117.428     -80.301
  C      -29.667     117.996     -78.746
  O      -28.935     118.283     -79.954
  C      -29.515     119.162     -77.753
  N      -26.852     119.387     -73.369
  C      -26.526     119.725     -74.635
  N      -27.267     119.597     -75.757
  C      -28.465     119.059     -75.478
  C      -28.938     118.664     -74.235
  C      -28.076     118.856     -73.142
  N      -28.416     118.519     -71.849
  N      -30.214     118.150     -74.337
  C      -30.526     118.283     -75.612
  N      -29.488     118.794     -76.350
  O      -34.049     123.325     -80.197
  O      -34.001     120.900     -81.160
  H      -28.877     117.455     -80.466
  H      -34.330     120.009     -80.950
  H      -25.538     120.157     -74.766
  H      -31.489     118.041     -76.043
  H      -28.600     119.737     -77.941
  H      -29.316     117.027     -78.385
  H      -31.686     117.495     -78.219
  H      -31.106     119.958     -79.977
  H      -33.520     119.390     -79.626
  H      -27.683     118.530     -71.158
  H      -29.277     118.011     -71.703
  H      -33.266     119.501     -77.872
  P      -31.803     115.868     -80.430
  C      -34.341     116.199     -80.196
  O      -33.169     115.639     -79.617
  O      -30.698     114.941     -80.059
  O      -32.252     115.683     -81.952
  H      -31.925     114.831     -82.300
  H      -35.184     115.985     -79.572
  H      -34.498     115.774     -81.165
  H      -34.223     117.259     -80.286

 6  7  8  9  10  11  12  13  14  15  25  28  32  33  34  35 0
 6-311+G(2d,p)
 ****
 36  39  40 0
 6-311+G(2d,p)
 ****
 1  2  3  4  5  16  17  18  19  20  21  22  23  24 0
 3-21G
 ****
 26  27  29  30  31  37  38  41  42  43  44  45  46  47 0
 3-21G
 ****
 48 0
 3-21G
 ****


