%nproc=1
%NoSave
%Mem=1900MB
#P OB98/GEN NMR

erre ene a

0 1
  C      -76.501     168.960     -78.240
  O      -76.107     170.277     -77.899
  P      -74.759     170.539     -77.080
  C      -73.827     169.833     -74.798
  O      -75.003     170.036     -75.572
  C      -74.017     168.714     -73.778
  O      -74.409     167.497     -74.471
  C      -72.770     168.378     -72.945
  O      -73.226     167.996     -71.641
  C      -72.197     167.166     -73.663
  O      -71.328     166.395     -72.847
  C      -73.493     166.461     -74.068
  N      -72.861     161.532     -75.302
  C      -72.971     162.151     -74.106
  N      -73.111     163.473     -73.863
  C      -73.131     164.175     -75.006
  C      -72.992     163.681     -76.295
  C      -72.866     162.290     -76.424
  N      -72.783     161.636     -77.637
  N      -73.004     164.723     -77.213
  C      -73.144     165.813     -76.485
  N      -73.293     165.523     -75.150
  O      -74.204     171.923     -77.191
  O      -73.729     169.459     -77.661
  H      -70.625     166.979     -72.504
  H      -73.078     169.900     -78.236
  H      -72.959     161.502     -73.233
  H      -73.148     166.825     -76.865
  H      -73.936     165.915     -73.227
  H      -71.635     167.493     -74.549
  H      -72.045     169.202     -72.869
  H      -74.851     168.988     -73.116
  H      -73.601     170.768     -74.272
  H      -72.830     160.624     -77.621
  H      -73.057     162.132     -78.485
  H      -72.982     169.598     -75.461
  P      -72.374     168.388     -70.345
  C      -70.326     167.242     -69.314
  O      -70.937     167.699     -70.510
  O      -73.053     168.139     -69.033
  O      -72.060     169.948     -70.560
  H      -71.796     170.349     -69.716
  H      -69.855     168.086     -68.798
  H      -69.554     166.506     -69.570
  H      -71.062     166.774     -68.647
  H      -77.423     168.993     -78.783
  H      -76.633     168.385     -77.347
  H      -75.745     168.508     -78.848

 3  4  5  6  7  8  9  10  11  12  22  25  29  30  31  32 0
 6-311+G(2d,p)
 ****
 33  36  37 0
 6-311+G(2d,p)
 ****
 1  2  13  14  15  16  17  18  19  20  21  23  24  26 0
 3-21G
 ****
 27  28  34  35  38  39  40  41  42  43  44  45  46  47  48 0
 3-21G
 ****


