%nproc=1
%NoSave
%Mem=1900MB
#P OB98/GEN NMR

erre ene a

0 1
  C      214.849     146.694    -363.059
  O      215.485     147.695    -362.261
  P      216.262     148.897    -362.986
  C      218.690     148.053    -363.123
  O      217.479     148.274    -363.842
  C      219.855     147.660    -364.063
  O      220.093     148.697    -365.058
  C      221.183     147.416    -363.338
  O      221.859     146.358    -364.038
  C      221.923     148.736    -363.536
  O      223.317     148.619    -363.323
  C      221.483     149.073    -364.966
  N      221.695     150.477    -365.294
  C      222.990     150.871    -365.626
  O      223.922     150.056    -365.530
  N      223.200     152.157    -366.020
  C      222.233     153.026    -365.960
  N      222.482     154.298    -366.374
  C      220.895     152.692    -365.434
  C      220.686     151.408    -365.153
  O      216.631     150.051    -362.116
  O      215.229     149.348    -364.141
  H      223.714     149.514    -363.314
  H      215.305     150.313    -364.267
  H      220.139     153.453    -365.320
  H      219.734     151.052    -364.779
  H      222.026     148.460    -365.697
  H      221.532     149.481    -362.831
  H      221.067     147.127    -362.284
  H      219.562     146.758    -364.600
  H      223.410     154.521    -366.706
  H      218.535     147.255    -362.396
  H      221.767     155.012    -366.406
  H      218.939     148.947    -362.543
  P      221.978     144.914    -363.333
  C      224.221     145.521    -362.164
  O      222.884     145.080    -362.016
  O      222.963     144.145    -364.335
  O      220.699     144.154    -363.171
  H      222.804     143.178    -364.246
  H      224.599     145.847    -361.191
  H      224.291     146.363    -362.863
  H      224.854     144.703    -362.535
  H      214.381     145.973    -362.421
  H      215.580     146.208    -363.671
  H      214.109     147.152    -363.682

 3  4  5  6  7  8  9  10  11  12  13  23  27  28  29  30  32 0
 6-311+G(2d,p)
 ****
 34  35 0
 6-311+G(2d,p)
 ****
 1  2  14  15  16  17  18  19  20  21  22  24  25  26 0
 3-21G
 ****
 31  33  36  37  38  39  40  41  42  43  44  45  46 0
 3-21G
 ****


