%nproc=1
%NoSave
%Mem=1900MB
#P OB98/GEN NMR

erre ene a

0 1
  C      100.394      92.127     390.596
  O       99.490      93.005     391.280
  P       97.909      92.989     391.005
  C       97.107      91.795     393.149
  O       97.276      91.704     391.733
  C       95.669      92.169     393.524
  O       94.740      91.173     393.040
  C       95.416      92.278     395.024
  O       95.898      93.518     395.518
  C       93.901      92.108     395.087
  O       93.242      93.342     394.771
  C       93.656      91.070     393.982
  N       90.409      87.340     395.290
  C       90.208      88.577     394.783
  N       91.124      89.517     394.465
  C       92.367      89.060     394.697
  C       92.730      87.823     395.212
  C       91.683      86.936     395.518
  N       91.889      85.684     396.049
  N       94.099      87.724     395.335
  C       94.558      88.874     394.878
  N       93.555      89.712     394.484
  O       97.535      93.122     389.565
  O       97.335      94.217     391.857
  H       93.527      94.002     395.430
  H       96.521      94.558     391.439
  H       89.172      88.846     394.607
  H       95.605      89.144     394.818
  H       92.737      91.284     393.426
  H       93.552      91.792     396.077
  H       95.900      91.447     395.550
  H       95.424      93.111     393.022
  H       97.795      92.561     393.527
  H       91.083      85.119     396.271
  H       92.830      85.393     396.269
  H       97.371      90.830     393.591
  P       96.723      93.568     396.893
  C       99.066      93.291     395.890
  O       98.050      92.699     396.677
  O       95.942      93.247     398.121
  O       97.290      95.066     396.939
  H       97.386      95.346     397.867
  H       98.822      93.175     394.831
  H      100.013      92.780     396.094
  H       99.179      94.354     396.126
  H      101.393      92.310     390.934
  H      100.335      92.305     389.543
  H      100.128      91.111     390.801

 3  4  5  6  7  8  9  10  11  12  22  25  29  30  31  32 0
 6-311+G(2d,p)
 ****
 33  36  37 0
 6-311+G(2d,p)
 ****
 1  2  13  14  15  16  17  18  19  20  21  23  24  26 0
 3-21G
 ****
 27  28  34  35  38  39  40  41  42  43  44  45  46  47  48 0
 3-21G
 ****


