%nproc=1
%NoSave
%Mem=1900MB
#P OB98/GEN NMR

erre ene a

0 1
  C     -266.731     126.121    -414.111
  O     -267.555     125.874    -415.252
  P     -269.099     125.564    -414.988
  C     -269.550     126.321    -417.426
  O     -269.748     125.313    -416.439
  C     -269.545     125.705    -418.822
  O     -270.768     124.994    -419.039
  C     -269.444     126.713    -419.958
  O     -268.104     127.131    -420.178
  C     -269.945     125.875    -421.132
  O     -268.883     125.056    -421.642
  C     -271.044     125.009    -420.469
  N     -274.741     125.687    -423.856
  C     -273.494     125.131    -424.019
  N     -273.189     124.659    -425.250
  N     -272.614     125.037    -423.059
  C     -273.055     125.511    -421.876
  C     -274.274     126.103    -421.581
  C     -275.229     126.240    -422.666
  O     -276.325     126.772    -422.607
  N     -274.378     126.451    -420.266
  C     -273.237     126.040    -419.739
  N     -272.389     125.496    -420.688
  O     -269.696     126.990    -414.548
  O     -269.374     124.511    -413.955
  H     -268.327     125.623    -422.207
  H     -270.492     126.857    -414.000
  H     -275.388     125.716    -424.633
  H     -272.978     126.118    -418.686
  H     -270.981     123.972    -420.818
  H     -270.304     126.491    -421.969
  H     -273.879     124.585    -425.995
  H     -270.117     127.560    -419.799
  H     -272.296     124.211    -425.375
  H     -268.716     124.978    -418.872
  H     -268.587     126.820    -417.250
  H     -270.349     127.073    -417.334
  P     -267.916     128.550    -420.927
  C     -265.475     128.400    -420.057
  O     -266.332     128.700    -421.140
  O     -268.275     129.614    -419.797
  O     -268.770     128.720    -422.150
  H     -268.583     130.444    -420.199
  H     -265.850     127.559    -419.465
  H     -265.376     129.277    -419.412
  H     -264.484     128.146    -420.454
  H     -265.728     126.313    -414.430
  H     -266.743     125.264    -413.470
  H     -267.105     126.971    -413.578

 3  4  5  6  7  8  9  10  11  12  23  26  30  31  33  0
 6-311+G(2d,p)
 ****
 35  36  37  38 0
 6-311+G(2d,p)
 ****
 1  2  13  14  15  16  17  18  19  20  21  22  24  25  27  28  29 0
 3-21G
 ****
 32  34  39  40  41  42  43  44  45  46  47  48  49 0
 3-21G
 ****


