%nproc=1
%NoSave
%Mem=1900MB
#P OB98/GEN NMR

erre ene a

0 1
  C      402.246    -753.661     743.088
  O      401.734    -753.042     744.240
  P      400.845    -753.892     745.285
  C      399.425    -751.815     745.872
  O      399.419    -753.173     745.418
  C      398.105    -751.122     745.536
  O      398.001    -750.921     744.098
  C      396.876    -751.922     745.924
  O      396.655    -751.902     747.318
  C      395.808    -751.199     745.098
  O      395.376    -749.990     745.746
  C      396.579    -750.870     743.801
  N      396.233    -751.764     742.705
  C      395.649    -751.169     741.589
  O      395.362    -749.959     741.602
  N      395.377    -751.942     740.489
  C      395.579    -753.236     740.543
  N      395.343    -753.962     739.423
  C      396.042    -753.921     741.770
  C      396.377    -753.143     742.803
  O      401.505    -754.211     746.587
  O      400.485    -755.239     744.481
  H      400.697    -755.998     745.053
  H      396.133    -749.348     745.667
  H      396.114    -755.002     741.788
  H      396.744    -753.537     743.720
  H      396.379    -749.826     743.492
  H      394.917    -751.820     744.940
  H      396.969    -752.948     745.568
  H      398.101    -750.138     746.024
  H      395.027    -753.454     738.594
  H      400.255    -751.298     745.398
  H      395.767    -754.867     739.257
  H      399.602    -751.806     746.961
  P      397.042    -753.241     748.119
  C      396.235    -752.235     750.363
  O      396.132    -753.295     749.432
  O      398.505    -752.915     748.686
  O      397.043    -754.487     747.281
  H      399.061    -753.728     748.652
  H      395.330    -752.217     750.984
  H      396.274    -751.269     749.834
  H      397.105    -752.344     750.990
  H      402.805    -752.948     742.519
  H      401.438    -754.036     742.495
  H      402.885    -754.471     743.372

 3  4  5  6  7  8  9  10  11  12  13  24  27  28  29  30  32 0
 6-311+G(2d,p)
 ****
 34  35 0
 6-311+G(2d,p)
 ****
 1  2  14  15  16  17  18  19  20  21  22  23  25  26 0
 3-21G
 ****
 31  33  36  37  38  39  40  41  42  43  44  45  46 0
 3-21G
 ****


