%nproc=1
%NoSave
%Mem=1900MB
#P OB98/GEN NMR

erre ene a

0 1
  C     1936.584     -31.893     365.307
  O     1936.510     -31.059     366.448
  P     1937.812     -30.995     367.392
  C     1939.213     -32.803     368.678
  O     1938.158     -32.500     367.777
  C     1938.860     -34.006     369.528
  O     1938.543     -35.163     368.684
  C     1939.964     -34.489     370.464
  O     1940.123     -33.661     371.583
  C     1939.534     -35.928     370.751
  O     1938.495     -35.892     371.768
  C     1938.890     -36.333     369.406
  N     1939.818     -37.176     368.607
  C     1940.030     -38.458     369.091
  O     1939.536     -38.910     370.108
  N     1940.859     -39.251     368.333
  C     1941.573     -38.825     367.209
  O     1942.338     -39.562     366.613
  C     1941.326     -37.455     366.784
  C     1940.457     -36.695     367.478
  O     1937.172     -30.361     368.727
  O     1938.918     -30.169     366.826
  H     1936.201     -30.600     368.817
  H     1938.188     -36.815     371.847
  H     1941.022     -40.186     368.634
  H     1941.842     -37.099     365.924
  H     1940.273     -35.672     367.195
  H     1937.966     -36.887     369.574
  H     1940.360     -36.548     371.100
  H     1940.926     -34.506     369.886
  H     1937.961     -33.746     370.126
  H     1939.417     -31.913     369.288
  H     1940.128     -33.007     368.076
  P     1941.546     -33.690     372.331
  C     1943.246     -35.610     372.941
  O     1942.046     -35.209     372.294
  O     1941.139     -33.453     373.856
  O     1942.530     -32.708     371.790
  H     1940.325     -33.969     374.117
  H     1943.219     -36.673     373.090
  H     1943.359     -35.098     373.922
  H     1944.121     -35.348     372.315
  H     1935.660     -31.845     364.770
  H     1936.767     -32.902     365.614
  H     1937.382     -31.563     364.675

 3  4  5  6  7  8  9  10  11  12  13  24  28  29  30  31  32 0
 6-311+G(2d,p)
 ****
 33  34 0
 6-311+G(2d,p)
 ****
 1  2  14  15  16  17  18  19  20  21  22  23  25  26  27 0
 3-21G
 ****
 35  36  37  38  39  40  41  42  43  44  45 0
 3-21G
 ****


