%nproc=1
%NoSave
%Mem=1900MB
#P OB98/GEN NMR

erre ene a

0 1
  C      543.345    -708.534    -703.643
  O      544.538    -708.211    -704.327
  H      543.585    -709.205    -702.804
  H      542.645    -709.044    -704.311
  H      542.875    -707.629    -703.247
  P      544.377    -707.321    -705.655
  C      546.340    -705.803    -704.827
  O      545.838    -706.665    -705.846
  C      547.355    -704.836    -705.436
  O      548.476    -705.551    -705.988
  C      546.809    -703.986    -706.570
  O      546.022    -702.894    -706.115
  C      548.100    -703.522    -707.228
  O      548.693    -702.478    -706.420
  C      548.947    -704.820    -707.159
  N      548.820    -705.635    -708.364
  C      549.957    -705.714    -709.184
  O      550.992    -705.108    -708.896
  N      549.882    -706.458    -710.338
  C      548.780    -707.085    -710.639
  N      548.765    -707.795    -711.814
  C      547.583    -707.045    -709.795
  C      547.660    -706.320    -708.684
  O      543.495    -706.072    -705.171
  O      543.841    -708.025    -706.862
  H      548.014    -701.784    -706.310
  H      543.451    -705.393    -705.892
  H      546.683    -707.583    -710.108
  H      546.822    -706.237    -708.018
  H      550.009    -704.593    -706.995
  H      547.960    -703.117    -708.223
  H      546.245    -704.592    -707.293
  H      547.760    -704.206    -704.614
  H      549.593    -707.746    -712.393
  H      546.820    -706.422    -704.055
  H      547.911    -708.162    -712.220
  H      545.526    -705.241    -704.376
  P      544.531    -702.743    -706.721
  C      543.964    -702.137    -704.255
  O      543.661    -701.946    -705.629
  O      543.943    -704.237    -706.638
  O      544.472    -702.189    -708.109
  H      543.413    -704.451    -707.418
  H      543.303    -701.543    -703.658
  H      544.975    -701.842    -704.068
  H      543.841    -703.170    -704.003

 6  7  8  9  10  11  12  13  14  15  16  26  30  31  32  33  35 0
 6-311+G(2d,p)
 ****
 37  38 0
 6-311+G(2d,p)
 ****
 1  2  3  4  5  17  18  19  20  21  22  23  24  25 0
 3-21G
 ****
 27  28  29  34  36  39  40  41  42  43  44  45  46 0
 3-21G
 ****


