%nproc=1
%NoSave
%Mem=1900MB
#P OB98/GEN NMR

erre ene a

0 1
  C      335.844     220.843    -645.710
  O      335.865     219.430    -645.721
  H      336.806     221.205    -645.345
  H      335.054     221.203    -645.046
  H      335.683     221.222    -646.722
  P      334.497     218.695    -646.126
  C      335.510     216.621    -644.911
  O      334.396     217.483    -645.073
  C      335.545     216.074    -643.485
  O      335.809     217.138    -642.538
  C      334.240     215.439    -643.019
  O      334.029     214.138    -643.534
  C      334.476     215.428    -641.519
  O      335.405     214.381    -641.189
  C      335.105     216.819    -641.311
  N      334.115     217.857    -641.004
  C      333.597     217.871    -639.706
  O      333.973     217.049    -638.871
  N      332.645     218.805    -639.382
  C      332.244     219.662    -640.270
  N      331.296     220.558    -639.894
  C      332.772     219.688    -641.651
  C      333.687     218.770    -641.944
  O      334.865     217.945    -647.490
  O      333.287     219.564    -646.202
  H      336.224     214.559    -641.693
  H      334.128     217.335    -647.751
  H      332.398     220.412    -642.363
  H      334.118     218.731    -642.940
  H      335.845     216.797    -640.503
  H      333.573     215.244    -640.942
  H      333.376     216.089    -643.236
  H      336.377     215.365    -643.422
  H      330.913     220.477    -638.960
  H      336.423     217.195    -645.114
  H      330.817     221.161    -640.554
  H      335.448     215.790    -645.615
  P      332.675     213.387    -643.115
  C      332.841     211.750    -645.137
  O      332.754     211.906    -643.727
  O      331.564     214.098    -644.019
  O      332.344     213.458    -641.652
  H      330.710     214.157    -643.544
  H      332.886     210.709    -645.379
  H      333.723     212.237    -645.496
  H      331.980     212.187    -645.598

 6  7  8  9  10  11  12  13  14  15  16  26  30  31  32  33  35 0
 6-311+G(2d,p)
 ****
 37  38 0
 6-311+G(2d,p)
 ****
 1  2  3  4  5  17  18  19  20  21  22  23  24  25 0
 3-21G
 ****
 27  28  29  34  36  39  40  41  42  43  44  45  46 0
 3-21G
 ****


