%nproc=1
%NoSave
%Mem=1900MB
#P OB98/GEN NMR

erre ene a

0 1
  C     -293.165    -174.148    -299.905
  O     -293.940    -174.679    -300.962
  H     -292.482    -173.400    -300.320
  H     -292.577    -174.931    -299.425
  H     -293.811    -173.658    -299.174
  P     -294.948    -175.885    -300.635
  C     -293.154    -177.623    -301.340
  O     -293.981    -177.125    -300.293
  C     -293.024    -179.144    -301.226
  O     -292.083    -179.508    -300.196
  C     -294.317    -179.874    -300.852
  O     -295.252    -179.952    -301.914
  C     -293.743    -181.231    -300.478
  O     -293.402    -181.959    -301.668
  C     -292.470    -180.824    -299.700
  N     -292.675    -180.774    -298.252
  C     -292.963    -181.995    -297.621
  O     -293.036    -183.035    -298.272
  N     -293.199    -181.999    -296.263
  C     -293.175    -180.887    -295.600
  N     -293.469    -180.939    -294.270
  C     -292.864    -179.577    -296.219
  C     -292.624    -179.596    -297.531
  O     -296.004    -176.161    -301.657
  O     -295.538    -175.530    -299.188
  H     -292.884    -181.354    -302.234
  H     -296.176    -176.244    -298.945
  H     -292.859    -178.681    -295.619
  H     -292.404    -178.679    -298.062
  H     -291.641    -181.504    -299.917
  H     -294.444    -181.852    -299.906
  H     -294.770    -179.426    -299.960
  H     -292.615    -179.513    -302.181
  H     -293.720    -181.842    -293.890
  H     -292.178    -177.140    -301.263
  H     -293.735    -180.108    -293.754
  H     -293.596    -177.386    -302.313
  P     -296.814    -179.913    -301.544
  C     -297.097    -182.354    -302.406
  O     -297.274    -181.438    -301.340
  O     -297.500    -179.489    -302.931
  O     -297.190    -179.000    -300.411
  H     -297.631    -178.521    -302.973
  H     -297.452    -183.319    -302.110
  H     -296.058    -182.417    -302.654
  H     -297.648    -182.018    -303.260

 6  7  8  9  10  11  12  13  14  15  16  26  30  31  32  33  35 0
 6-311+G(2d,p)
 ****
 37  38 0
 6-311+G(2d,p)
 ****
 1  2  3  4  5  17  18  19  20  21  22  23  24  25 0
 3-21G
 ****
 27  28  29  34  36  39  40  41  42  43  44  45  46 0
 3-21G
 ****


