%nproc=1
%NoSave
%Mem=1900MB
#P OB98/GEN NMR

erre ene a

0 1
  C      245.552     -77.584     161.933
  O      245.797     -78.090     160.608
  P      245.775     -79.679     160.363
  C      247.470     -81.671     160.338
  O      247.227     -80.308     160.658
  C      248.809     -82.151     160.925
  O      249.930     -81.585     160.164
  C      249.033     -81.772     162.396
  O      249.802     -82.821     162.997
  C      249.877     -80.508     162.283
  O      250.581     -80.199     163.475
  C      250.767     -80.884     161.104
  N      251.425     -79.740     160.455
  C      252.456     -79.101     161.145
  O      252.819     -79.403     162.282
  N      253.052     -78.068     160.469
  C      252.715     -77.589     159.239
  O      253.266     -76.643     158.707
  C      251.593     -78.287     158.579
  C      251.013     -79.311     159.207
  O      245.682     -79.775     158.765
  O      244.630     -80.413     160.990
  H      251.266     -79.546     163.247
  H      245.009     -80.431     158.515
  H      253.821     -77.605     160.939
  H      251.289     -77.936     157.595
  H      250.190     -79.845     158.732
  H      251.537     -81.596     161.435
  H      249.217     -79.660     162.055
  H      248.097     -81.619     162.949
  H      248.862     -83.241     160.801
  H      247.501     -81.788     159.249
  H      246.647     -82.282     160.719
  P      249.020     -83.947     163.851
  C      247.580     -83.910     166.039
  O      248.435     -83.223     165.159
  O      250.267     -84.783     164.423
  O      248.063     -84.762     163.061
  H      250.975     -84.220     164.767
  H      247.908     -84.943     166.199
  H      246.555     -83.904     165.632
  H      247.578     -83.397     167.008
  H      245.602     -76.515     161.922
  H      246.291     -77.969     162.604
  H      244.580     -77.892     162.258

 3  4  5  6  7  8  9  10  11  12  13  23  28  29  30  31  32 0
 6-311+G(2d,p)
 ****
 33  34 0
 6-311+G(2d,p)
 ****
 1  2  14  15  16  17  18  19  20  21  22  24  25  26 0
 3-21G
 ****
 27  35  36  37  38  39  40  41  42  43  44  45 0
 3-21G
 ****


