%nproc=1
%NoSave
%Mem=1900MB
#P OB98/GEN NMR

erre ene a

0 1
  C     -381.049     112.296    -390.496
  O     -380.129     111.598    -391.312
  H     -381.281     113.256    -390.970
  H     -380.610     112.486    -389.515
  H     -381.972     111.721    -390.389
  P     -379.648     110.157    -390.792
  C     -379.313     109.186    -393.176
  O     -378.701     109.559    -391.948
  C     -378.247     108.943    -394.248
  O     -377.774     110.228    -394.740
  C     -377.025     108.164    -393.745
  O     -376.585     107.279    -394.781
  C     -375.983     109.247    -393.545
  O     -374.656     108.732    -393.589
  C     -376.335     110.192    -394.689
  N     -373.620     113.812    -396.892
  C     -374.054     112.594    -397.379
  N     -373.716     112.290    -398.652
  N     -374.764     111.748    -396.679
  C     -375.056     112.194    -395.435
  C     -374.674     113.369    -394.829
  C     -373.872     114.289    -395.608
  O     -373.437     115.367    -395.223
  N     -375.142     113.435    -393.538
  C     -375.800     112.301    -393.367
  N     -375.781     111.520    -394.489
  O     -380.972     109.260    -390.902
  O     -379.061     110.131    -389.423
  H     -374.540     108.273    -394.442
  H     -380.973     108.560    -390.223
  H     -373.068     114.422    -397.467
  H     -376.307     112.004    -392.456
  H     -375.962     109.833    -395.657
  H     -376.130     109.733    -392.572
  H     -373.200     112.906    -399.261
  H     -377.215     107.589    -392.835
  H     -374.034     111.405    -399.034
  H     -378.720     108.435    -395.096
  H     -379.981     109.992    -393.501
  H     -379.897     108.274    -393.022
  P     -376.653     105.704    -394.494
  C     -378.339     105.149    -396.392
  O     -377.043     104.944    -395.858
  O     -377.977     105.561    -393.605
  O     -375.457     105.164    -393.780
  H     -377.734     105.359    -392.686
  H     -378.447     104.582    -397.293
  H     -378.476     106.188    -396.606
  H     -379.072     104.832    -395.680

 6  7  8  9  10  11  12  13  14  15  26  29  33  34 0
 6-311+G(2d,p)
 ****
 36  38  39  40  41 0
 6-311+G(2d,p)
 ****
 1  2  3  4  5  16  17  18  19  20  21  22  23  24  25 0
 3-21G
 ****
 27  28  30  31  32  35  37  42  43  44  45  46  47 0
 3-21G
 ****
 48  49 0
 3-21G
 ****


