%nproc=1
%NoSave
%Mem=1900MB
#P OB98/GEN NMR

erre ene a

0 1
  C      215.748    -242.475    -314.690
  O      216.870    -242.099    -315.463
  H      214.930    -241.783    -314.899
  H      215.990    -242.424    -313.625
  H      215.429    -243.488    -314.950
  P      218.182    -243.010    -315.316
  C      219.894    -243.319    -313.383
  O      218.980    -242.451    -314.043
  C      220.252    -242.747    -312.016
  O      219.049    -242.316    -311.337
  C      220.910    -243.751    -311.080
  O      222.279    -243.944    -311.373
  C      220.664    -243.097    -309.730
  O      221.652    -242.098    -309.444
  C      219.290    -242.447    -309.916
  N      216.753    -243.295    -305.569
  C      217.702    -242.392    -305.897
  N      218.321    -242.224    -307.086
  C      217.845    -243.090    -307.994
  C      216.877    -244.064    -307.806
  C      216.315    -244.151    -306.522
  N      215.366    -245.086    -306.179
  N      216.684    -244.787    -308.967
  C      217.514    -244.256    -309.840
  N      218.232    -243.227    -309.300
  O      219.081    -242.552    -316.560
  O      217.936    -244.480    -315.320
  H      221.402    -241.706    -308.584
  H      218.992    -243.203    -317.282
  H      218.014    -241.726    -305.098
  H      217.633    -244.584    -310.867
  H      219.243    -241.440    -309.484
  H      220.699    -243.834    -308.929
  H      220.367    -244.706    -311.112
  H      220.894    -241.868    -312.160
  H      220.804    -243.413    -313.985
  H      219.431    -244.307    -313.279
  H      215.059    -245.134    -305.221
  H      215.118    -245.799    -306.850
  P      223.038    -245.150    -310.632
  C      223.874    -245.574    -308.200
  O      223.433    -244.631    -309.169
  O      224.439    -245.248    -311.396
  O      222.304    -246.448    -310.649
  H      224.722    -246.181    -311.451
  H      224.096    -245.067    -307.284
  H      224.754    -246.067    -308.557
  H      223.104    -246.297    -308.030

 6  7  8  9  10  11  12  13  14  15  25  28  32  33  34  35 0
 6-311+G(2d,p)
 ****
 36  37  40 0
 6-311+G(2d,p)
 ****
 1  2  3  4  5  16  17  18  19  20  21  22  23  24 0
 3-21G
 ****
 26  27  29  30  31  38  39 41  42  43  44  45  46  47  48 0
 3-21G
 ****


