%nproc=1
%NoSave
%Mem=1900MB
#P OB98/GEN NMR

erre ene a

0 1
  C      104.133      22.286     -62.453
  O      103.203      21.216     -62.445
  P      102.263      21.028     -63.735
  C      103.764      19.375     -65.079
  O      103.235      20.685     -64.966
  C      103.023      18.588     -66.161
  O      103.701      17.319     -66.357
  C      101.557      18.275     -65.840
  O      100.848      18.265     -67.085
  C      101.624      16.865     -65.281
  O      100.376      16.183     -65.358
  C      102.731      16.271     -66.145
  N      102.213      11.390     -64.929
  C      101.302      12.261     -65.495
  N      100.105      11.738     -65.838
  N      101.542      13.530     -65.707
  C      102.786      13.904     -65.329
  C      103.761      13.146     -64.723
  C      103.497      11.738     -64.530
  O      104.305      10.913     -64.112
  N      104.860      13.898     -64.408
  C      104.582      15.092     -64.893
  N      103.356      15.132     -65.502
  O      101.776      22.518     -64.041
  O      101.124      20.072     -63.572
  H      100.528      15.251     -65.100
  H      100.913      22.700     -63.619
  H      101.977      10.419     -64.807
  H      105.226      15.955     -64.840
  H      102.366      15.938     -67.126
  H      101.923      16.900     -64.226
  H       99.862      10.764     -65.731
  H      101.099      18.984     -65.145
  H       99.430      12.347     -66.283
  H      103.097      19.146     -67.104
  H      103.635      18.857     -64.123
  H      104.834      19.429     -65.300
  P       99.252      18.402     -67.040
  C       99.026      20.982     -67.062
  O       98.904      19.786     -66.317
  O       98.832      17.303     -65.950
  O       98.564      18.147     -68.342
  H       97.958      16.935     -66.176
  H       98.400      21.749     -66.599
  H       98.707      20.845     -68.099
  H      100.066      21.317     -67.044
  H      104.684      22.286     -61.536
  H      103.609      23.213     -62.554
  H      104.808      22.166     -63.275

 3  4  5  6  7  8  9  10  11  12  23  26  30  31 0
 6-311+G(2d,p)
 ****
 33  35  36  37  38 0
 6-311+G(2d,p)
 ****
 1  2  13  14  15  16  17  18  19  20  21  22  24  25 0
 3-21G
 ****
 27  28  29  32  34  39  40  41  42  43  44  45  46  47  48  49 0
 3-21G
 ****


