%nproc=1
%NoSave
%Mem=1900MB
#P OB98/GEN NMR

erre ene a

0 1
  C       82.679      30.152      45.196
  O       83.585      30.214      46.282
  P       82.991      29.998      47.759
  C       83.732      32.246      48.831
  O       82.656      31.460      48.332
  C       83.450      32.739      50.251
  O       82.178      33.432      50.261
  C       83.393      31.626      51.300
  O       83.971      32.130      52.506
  C       81.904      31.418      51.515
  O       81.628      30.855      52.797
  C       81.370      32.845      51.307
  N       79.953      32.856      50.954
  C       79.162      33.848      51.545
  O       79.651      34.607      52.382
  N       77.830      33.919      51.211
  C       77.313      33.011      50.442
  N       75.989      33.129      50.141
  C       78.085      31.877      49.899
  C       79.389      31.874      50.171
  O       84.277      29.557      48.603
  O       81.885      28.997      47.847
  H       80.679      31.007      52.997
  H       84.030      28.940      49.320
  H       77.595      31.128      49.291
  H       80.037      31.093      49.794
  H       81.508      33.448      52.214
  H       81.507      30.743      50.747
  H       83.921      30.720      50.987
  H       84.221      33.474      50.519
  H       75.478      33.906      50.539
  H       83.864      33.120      48.185
  H       75.497      32.469      49.550
  H       84.658      31.660      48.800
  P       84.781      31.101      53.430
  C       82.785      31.209      55.043
  O       83.665      30.369      54.319
  O       85.447      32.092      54.505
  O       85.813      30.234      52.788
  H       86.031      31.587      55.100
  H       81.998      30.593      55.488
  H       82.322      31.944      54.379
  H       83.328      31.715      55.844
  H       83.209      30.312      44.280
  H       81.931      30.908      45.312
  H       82.213      29.189      45.175

 3  4  5  6  7  8  9  10  11  12  13  21  23  27  28  29  30  32 0
 6-311+G(2d,p)
 ****
 34  35 0
 6-311+G(2d,p)
 ****
 1  2  14  15  16  17  18  19  20  22  24  25  26 0
 3-21G
 ****
 31  33  36  37  38  39  40  41  42  43  44  45  46 0
 3-21G
 ****


