%nproc=1
%NoSave
%Mem=1900MB
#P OB98/GEN NMR

erre ene a

0 1
  C     -347.664     494.410     600.920
  O     -347.091     495.471     601.662
  H     -348.434     494.817     600.259
  H     -348.133     493.680     601.585
  H     -346.901     493.918     600.311
  P     -346.041     495.107     602.818
  C     -344.176     496.412     604.049
  O     -345.105     496.396     602.968
  C     -342.785     496.767     603.540
  O     -342.214     495.656     602.823
  C     -342.784     497.938     602.566
  O     -342.947     499.167     603.249
  C     -341.443     497.741     601.881
  O     -340.374     498.240     602.691
  C     -341.377     496.198     601.775
  N     -341.793     495.706     600.464
  C     -340.907     495.944     599.410
  O     -339.844     496.532     599.606
  N     -341.267     495.528     598.152
  C     -342.391     494.914     597.967
  N     -342.684     494.527     596.691
  C     -343.348     494.629     599.055
  C     -342.988     495.053     600.265
  O     -345.298     493.817     602.675
  O     -346.927     495.145     604.152
  H     -340.642     499.138     602.966
  H     -347.312     494.267     604.334
  H     -344.272     494.111     598.852
  H     -343.631     494.885     601.121
  H     -340.359     495.841     601.962
  H     -341.406     498.248     600.922
  H     -343.568     497.802     601.814
  H     -342.146     496.977     604.407
  H     -342.003     494.753     595.980
  H     -344.173     495.408     604.491
  H     -343.482     493.969     596.445
  H     -344.496     497.124     604.819
  P     -343.520     500.458     602.483
  C     -344.831     502.550     603.222
  O     -344.429     501.219     603.559
  O     -344.173     500.179     601.168
  O     -342.234     501.403     602.365
  H     -341.606     501.075     601.673
  H     -345.430     502.952     604.012
  H     -345.400     502.532     602.316
  H     -343.963     503.161     603.086

 6  7  8  9  10  11  12  13  14  15  16  26  30  31  32  33  35 0
 6-311+G(2d,p)
 ****
 37  38 0
 6-311+G(2d,p)
 ****
 1  2  3  4  5  17  18  19  20  21  22  23  24  25 0
 3-21G
 ****
 27  28  29  34  36  39  40  41  42  43  44  45  46 0
 3-21G
 ****


