%nproc=1
%NoSave
%Mem=1900MB
#P OB98/GEN NMR

erre ene a

0 1
  C      429.191    -577.115    -171.574
  O      428.945    -575.904    -170.885
  H      429.454    -577.884    -170.844
  H      430.024    -576.994    -172.273
  H      428.295    -577.435    -172.113
  P      428.579    -574.599    -171.738
  C      426.041    -574.647    -171.259
  O      427.065    -574.800    -172.234
  C      424.901    -573.795    -171.821
  O      425.288    -572.406    -171.860
  C      424.480    -574.165    -173.240
  O      423.606    -575.283    -173.225
  C      423.782    -572.883    -173.665
  O      422.472    -572.824    -173.059
  C      424.694    -571.806    -173.043
  N      425.848    -569.710    -177.517
  C      424.634    -570.163    -177.040
  N      423.586    -570.076    -177.889
  N      424.469    -570.669    -175.847
  C      425.617    -570.762    -175.138
  C      426.877    -570.362    -175.508
  C      427.040    -569.741    -176.806
  O      428.094    -569.303    -177.255
  N      427.812    -570.701    -174.563
  C      427.107    -571.255    -173.597
  N      425.765    -571.327    -173.900
  O      429.535    -574.242    -172.836
  O      428.453    -573.436    -170.648
  H      421.980    -573.603    -173.377
  H      429.301    -572.971    -170.529
  H      425.918    -569.334    -178.451
  H      427.508    -571.621    -172.658
  H      424.129    -570.924    -172.719
  H      423.645    -572.812    -174.740
  H      423.682    -569.837    -178.863
  H      425.349    -574.326    -173.889
  H      422.703    -570.459    -177.574
  H      424.054    -573.871    -171.123
  H      426.487    -574.163    -170.385
  H      425.652    -575.626    -170.959
  P      423.669    -576.410    -174.370
  C      424.266    -578.529    -173.011
  O      424.737    -577.486    -173.846
  O      423.924    -575.897    -175.741
  O      422.291    -577.206    -174.216
  H      421.546    -576.779    -174.704
  H      425.082    -579.166    -172.741
  H      423.527    -579.099    -173.535
  H      423.833    -578.110    -172.127

 6  7  8  9  10  11  12  13  14  15  26  29  33  34 0
 6-311+G(2d,p)
 ****
 36  38  39  40  41 0
 6-311+G(2d,p)
 ****
 1  2  3  4  5  16  17  18  19  20  21  22  23  24  25 0
 3-21G
 ****
 27  28  30  31  32  35  37  42  43  44  45  46  47 0
 3-21G
 ****
 48  49 0
 3-21G
 ****


