%nproc=1
%NoSave
%Mem=1900MB
#P OB98/GEN NMR

erre ene a

0 1
  C     1311.694     120.627    -665.969
  O     1312.029     121.610    -665.005
  H     1311.208     119.784    -665.466
  H     1312.597     120.261    -666.469
  H     1311.001     121.045    -666.708
  P     1312.780     122.916    -665.544
  C     1314.500     122.722    -663.610
  O     1314.292     122.814    -665.013
  C     1315.918     122.234    -663.316
  O     1316.061     120.848    -663.700
  C     1317.015     122.991    -664.033
  O     1317.347     124.188    -663.344
  C     1318.144     121.977    -664.024
  O     1318.835     121.964    -662.758
  C     1317.393     120.656    -664.248
  N     1320.010     118.902    -668.192
  C     1320.412     119.154    -666.894
  N     1321.720     118.950    -666.624
  N     1319.600     119.566    -665.955
  C     1318.336     119.754    -666.381
  C     1317.812     119.540    -667.641
  C     1318.708     119.045    -668.667
  O     1318.397     118.754    -669.818
  N     1316.472     119.836    -667.682
  C     1316.198     120.266    -666.466
  N     1317.296     120.258    -665.641
  O     1312.157     124.097    -664.655
  O     1312.616     123.190    -667.004
  H     1319.086     122.874    -662.521
  H     1312.152     124.921    -665.173
  H     1320.669     118.572    -668.875
  H     1315.217     120.603    -666.133
  H     1317.848     119.821    -663.702
  H     1318.896     122.199    -664.787
  H     1322.422     118.950    -667.352
  H     1316.733     123.207    -665.070
  H     1322.022     119.141    -665.677
  H     1316.057     122.285    -662.223
  H     1313.776     122.027    -663.189
  H     1314.344     123.718    -663.164
  P     1318.292     125.247    -664.093
  C     1318.643     126.335    -661.753
  O     1319.250     125.882    -662.954
  O     1317.306     126.444    -664.448
  O     1318.998     124.703    -665.297
  H     1317.705     127.016    -665.131
  H     1319.394     126.726    -661.099
  H     1318.145     125.518    -661.275
  H     1317.933     127.102    -661.980

 6  7  8  9  10  11  12  13  14  15  26  29  33  34 0
 6-311+G(2d,p)
 ****
 36  38  39  40  41 0
 6-311+G(2d,p)
 ****
 1  2  3  4  5  16  17  18  19  20  21  22  23  24  25 0
 3-21G
 ****
 27  28  30  31  32  35  37  42  43  44  45  46  47 0
 3-21G
 ****
 48  49 0
 3-21G
 ****


