%nproc=1
%NoSave
%Mem=1900MB
#P OB98/GEN NMR

erre ene a

0 1
  C      837.474    -483.932     984.363
  O      836.118    -484.235     984.576
  H      837.556    -483.131     983.626
  H      838.017    -484.806     983.995
  H      837.938    -483.591     985.304
  P      835.792    -485.423     985.602
  C      836.166    -487.997     985.546
  O      836.368    -486.744     984.892
  C      835.646    -489.025     984.546
  O      836.622    -489.252     983.495
  C      835.387    -490.407     985.162
  O      834.091    -490.444     985.752
  C      835.444    -491.301     983.915
  O      834.192    -491.234     983.211
  C      836.562    -490.640     983.080
  N      839.981    -493.811     980.951
  C      838.683    -493.565     980.653
  N      837.793    -492.744     981.302
  C      838.406    -492.134     982.333
  C      839.746    -492.299     982.743
  C      840.537    -493.169     981.987
  N      841.861    -493.412     982.295
  N      840.003    -491.517     983.858
  C      838.867    -490.861     984.073
  N      837.877    -491.226     983.204
  O      834.375    -485.495     986.098
  O      836.896    -485.149     986.757
  H      833.519    -491.657     983.794
  H      837.748    -484.890     986.348
  H      838.285    -494.103     979.795
  H      838.750    -490.079     984.824
  H      836.298    -490.640     981.998
  H      835.616    -492.350     984.163
  H      836.183    -490.706     985.850
  H      834.738    -488.650     984.074
  H      835.443    -487.864     986.358
  H      842.310    -494.206     981.845
  H      842.225    -493.026     983.150
  H      837.121    -488.306     985.982
  P      833.745    -491.483     986.933
  C      833.439    -494.029     987.074
  O      833.793    -492.931     986.243
  O      832.495    -491.172     987.687
  O      835.064    -491.473     987.859
  H      834.870    -491.878     988.738
  H      833.506    -494.937     986.513
  H      832.437    -493.901     987.427
  H      834.107    -494.075     987.908

 6  7  8  9  10  11  12  13  14  15  25  28  32  33  34  35 0
 6-311+G(2d,p)
 ****
 36  39  40 0
 6-311+G(2d,p)
 ****
 1  2  3  4  5  16  17  18  19  20  21  22  23  24 0
 3-21G
 ****
 26  27  29  30  31  37  38  41  42  43  44  45  46  47 0
 3-21G
 ****
 48 0
 3-21G
 ****


