%nproc=1
%NoSave
%Mem=1900MB
#P OB98/GEN NMR

erre ene a

0 1
  C      -87.682     -79.771    -435.061
  O      -87.360     -78.433    -435.378
  H      -87.152     -80.432    -435.751
  H      -88.757     -79.932    -435.178
  H      -87.378     -80.008    -434.038
  P      -87.966     -77.294    -434.423
  C      -90.275     -77.442    -435.598
  O      -89.556     -77.543    -434.376
  C      -91.618     -78.165    -435.493
  O      -92.457     -77.460    -434.528
  C      -92.401     -78.241    -436.814
  O      -93.104     -79.492    -436.842
  C      -93.424     -77.125    -436.665
  O      -94.554     -77.304    -437.519
  C      -93.728     -77.235    -435.171
  N      -98.026     -75.527    -433.184
  C      -97.653     -76.805    -433.549
  N      -98.566     -77.781    -433.357
  N      -96.487     -77.103    -434.060
  C      -95.659     -76.031    -434.167
  C      -95.909     -74.720    -433.847
  C      -97.215     -74.399    -433.306
  O      -97.609     -73.282    -432.982
  N      -94.824     -73.926    -434.130
  C      -93.921     -74.759    -434.618
  N      -94.382     -76.048    -434.657
  O      -87.817     -75.972    -435.310
  O      -87.303     -77.154    -433.093
  H      -94.978     -78.155    -437.276
  H      -86.979     -75.516    -435.101
  H      -98.942     -75.351    -432.807
  H      -92.932     -74.485    -434.957
  H      -94.387     -78.083    -434.941
  H      -92.967     -76.157    -436.903
  H      -99.464     -77.639    -432.924
  H      -91.782     -78.142    -437.710
  H      -98.294     -78.735    -433.580
  H      -91.448     -79.167    -435.080
  H      -89.684     -77.901    -436.397
  H      -90.439     -76.383    -435.833
  P      -92.442     -80.711    -437.645
  C      -93.684     -80.262    -439.886
  O      -92.440     -80.335    -439.203
  O      -93.565     -81.848    -437.552
  O      -91.137     -81.173    -437.087
  H      -93.145     -82.728    -437.602
  H      -93.514     -80.002    -440.910
  H      -94.300     -79.517    -439.427
  H      -94.175     -81.211    -439.835

 6  7  8  9  10  11  12  13  14  15  26  29  33  34 0
 6-311+G(2d,p)
 ****
 36  38  39  40  41 0
 6-311+G(2d,p)
 ****
 1  2  3  4  5  16  17  18  19  20  21  22  23  24  25 0
 3-21G
 ****
 27  28  30  31  32  35  37  42  43  44  45  46  47 0
 3-21G
 ****
 48  49 0
 3-21G
 ****


