%nproc=1
%NoSave
%Mem=1900MB
#P OB98/GEN NMR

erre ene a

0 1
  C     -116.263      24.679     108.772
  O     -116.508      24.890     107.397
  H     -115.209      24.423     108.903
  H     -116.873      23.854     109.151
  H     -116.473      25.589     109.339
  P     -118.017      25.167     106.925
  C     -120.225      23.897     107.403
  O     -118.809      23.828     107.333
  C     -120.780      22.666     108.115
  O     -120.303      22.594     109.474
  C     -122.301      22.626     108.236
  O     -122.956      22.316     107.018
  C     -122.453      21.527     109.276
  O     -122.236      20.246     108.656
  C     -121.303      21.873     110.250
  N     -121.742      22.677     111.390
  C     -122.708      22.105     112.227
  O     -123.149      20.980     111.993
  N     -123.181      22.835     113.289
  C     -122.742      24.039     113.490
  N     -123.279      24.737     114.529
  C     -121.713      24.674     112.645
  C     -121.265      23.949     111.622
  O     -118.197      25.610     105.509
  O     -118.583      26.214     107.996
  H     -122.842      20.192     107.896
  H     -119.514      26.427     107.741
  H     -121.388      25.683     112.851
  H     -120.519      24.354     110.946
  H     -120.822      20.962     110.625
  H     -123.446      21.503     109.735
  H     -122.684      23.562     108.658
  H     -120.394      21.780     107.592
  H     -124.012      24.286     115.059
  H     -120.614      23.969     106.383
  H     -123.202      25.748     114.580
  H     -120.531      24.786     107.964
  P     -124.555      22.156     107.044
  C     -126.162      20.165     107.537
  O     -124.862      20.715     107.678
  O     -124.919      21.976     105.499
  O     -125.308      23.278     107.685
  H     -125.157      22.831     105.090
  H     -126.198      19.207     108.013
  H     -126.392      20.056     106.498
  H     -126.877      20.817     107.994

 6  7  8  9  10  11  12  13  14  15  16  26  30  31  32  33  35 0
 6-311+G(2d,p)
 ****
 37  38 0
 6-311+G(2d,p)
 ****
 1  2  3  4  5  17  18  19  20  21  22  23  24  25 0
 3-21G
 ****
 27  28  29  34  36  39  40  41  42  43  44  45  46 0
 3-21G
 ****


