%nproc=1
%NoSave
%Mem=1900MB
#P OB98/GEN NMR

erre ene a

0 1
  C     -136.623    -182.978     377.979
  O     -136.598    -182.475     379.300
  H     -136.996    -182.196     377.313
  H     -137.297    -183.836     377.927
  H     -135.620    -183.270     377.656
  P     -135.783    -183.330     380.386
  C     -133.329    -182.612     379.948
  O     -134.330    -183.598     379.757
  C     -132.201    -183.163     380.816
  O     -132.726    -183.669     382.062
  C     -131.424    -184.313     380.180
  O     -130.416    -183.837     379.298
  C     -130.812    -184.954     381.415
  O     -129.685    -184.170     381.864
  C     -131.959    -184.850     382.429
  N     -133.487    -188.873     385.111
  C     -132.499    -187.949     385.387
  N     -131.811    -188.128     386.535
  N     -132.202    -186.945     384.606
  C     -132.953    -186.905     383.480
  C     -133.955    -187.764     383.092
  C     -134.283    -188.861     383.973
  O     -135.159    -189.699     383.782
  N     -134.491    -187.405     381.884
  C     -133.798    -186.341     381.529
  N     -132.849    -186.000     382.461
  O     -136.500    -184.762     380.317
  O     -135.802    -182.780     381.772
  H     -129.204    -184.711     382.515
  H     -137.098    -184.852     381.084
  H     -133.666    -189.635     385.743
  H     -133.945    -185.781     380.616
  H     -131.597    -184.700     383.451
  H     -130.440    -185.962     381.224
  H     -131.973    -188.894     387.171
  H     -132.091    -185.029     379.685
  H     -131.084    -187.461     386.757
  H     -131.528    -182.332     381.061
  H     -133.773    -181.738     380.439
  H     -132.935    -182.312     378.971
  P     -129.905    -184.813     378.132
  C     -131.332    -183.629     376.320
  O     -131.053    -184.839     377.010
  O     -130.012    -186.259     378.813
  O     -128.527    -184.545     377.638
  H     -129.120    -186.625     378.956
  H     -132.113    -183.796     375.608
  H     -130.451    -183.297     375.812
  H     -131.642    -182.882     377.021

 6  7  8  9  10  11  12  13  14  15  26  29  33  34 0
 6-311+G(2d,p)
 ****
 36  38  39  40  41 0
 6-311+G(2d,p)
 ****
 1  2  3  4  5  16  17  18  19  20  21  22  23  24  25 0
 3-21G
 ****
 27  28  30  31  32  35  37  42  43  44  45  46  47 0
 3-21G
 ****
 48  49 0
 3-21G
 ****


