%nproc=1
%NoSave
%Mem=1900MB
#P OB98/GEN NMR

erre ene a

0 1
  C     -222.462      12.675      11.598
  O     -221.829      13.936      11.702
  H     -222.174      12.066      12.459
  H     -222.141      12.168      10.684
  H     -223.547      12.798      11.598
  P     -222.146      14.993      10.537
  C     -223.791      16.018      12.253
  O     -223.591      15.577      10.917
  C     -225.129      16.740      12.382
  O     -225.409      17.047      13.758
  C     -225.200      18.068      11.639
  O     -225.461      17.863      10.260
  C     -226.376      18.725      12.343
  O     -227.613      18.198      11.822
  C     -226.189      18.272      13.802
  N     -226.459      22.882      16.043
  C     -227.231      22.293      15.105
  N     -227.075      21.085      14.525
  C     -225.988      20.461      15.006
  C     -225.106      20.936      15.965
  C     -225.381      22.205      16.502
  N     -224.596      22.797      17.467
  N     -224.105      20.019      16.206
  C     -224.408      18.987      15.446
  N     -225.518      19.219      14.674
  O     -221.979      14.491       9.146
  O     -221.173      16.198      10.947
  H     -228.327      18.475      12.425
  H     -221.151      16.305      11.914
  H     -228.090      22.870      14.776
  H     -223.870      18.047      15.430
  H     -227.146      18.035      14.280
  H     -226.402      19.806      12.190
  H     -224.301      18.669      11.806
  H     -225.915      16.056      12.035
  H     -222.977      16.683      12.561
  H     -224.763      23.770      17.670
  H     -223.727      22.346      17.715
  H     -223.777      15.132      12.896
  P     -225.248      19.050       9.203
  C     -222.806      18.298       8.924
  O     -223.679      19.386       9.203
  O     -226.135      20.230       9.394
  O     -225.471      18.363       7.778
  H     -225.941      18.972       7.177
  H     -221.792      18.638       8.951
  H     -223.025      17.905       7.953
  H     -222.945      17.532       9.658

 6  7  8  9  10  11  12  13  14  15  25  28  32  33  34  35 0
 6-311+G(2d,p)
 ****
 36  39  40 0
 6-311+G(2d,p)
 ****
 1  2  3  4  5  16  17  18  19  20  21  22  23  24 0
 3-21G
 ****
 26  27  29  30  31  37  38  41  42  43  44  45  46  47 0
 3-21G
 ****
 48 0
 3-21G
 ****


