%nproc=1
%NoSave
%Mem=1900MB
#P OB98/GEN NMR

erre ene a

0 1
  C      452.095    -560.362    -580.143
  O      451.709    -559.132    -580.740
  P      450.591    -559.186    -581.897
  C      450.526    -556.607    -582.162
  O      450.745    -557.860    -582.790
  C      450.505    -555.482    -583.192
  O      451.880    -555.108    -583.539
  C      449.795    -555.843    -584.515
  O      449.140    -554.668    -585.037
  C      450.928    -556.188    -585.443
  O      450.552    -556.046    -586.816
  C      452.005    -555.207    -584.975
  N      455.048    -556.475    -588.797
  C      453.823    -555.842    -588.827
  N      453.317    -555.596    -590.062
  N      453.183    -555.479    -587.769
  C      453.808    -555.802    -586.608
  C      455.034    -556.414    -586.452
  C      455.736    -556.818    -587.646
  O      456.820    -557.404    -587.686
  N      455.371    -556.537    -585.126
  C      454.333    -556.054    -584.476
  N      453.351    -555.615    -585.333
  O      449.220    -558.930    -581.090
  O      450.547    -560.473    -582.658
  H      450.497    -555.094    -586.984
  H      448.729    -559.784    -581.009
  H      455.520    -556.744    -589.649
  H      454.222    -555.997    -583.384
  H      451.837    -554.217    -585.401
  H      451.234    -557.223    -585.277
  H      453.740    -555.915    -590.916
  H      449.057    -556.660    -584.412
  H      452.387    -555.172    -590.100
  H      450.050    -554.593    -582.731
  H      451.306    -556.412    -581.437
  H      449.561    -556.631    -581.631
  P      447.619    -554.876    -585.539
  C      446.757    -552.563    -584.694
  O      447.041    -553.416    -585.800
  O      446.870    -555.365    -584.214
  O      447.480    -555.849    -586.669
  H      446.084    -555.890    -584.447
  H      447.404    -551.697    -584.735
  H      446.895    -553.085    -583.733
  H      445.708    -552.257    -584.763
  H      452.839    -560.178    -579.396
  H      452.495    -561.012    -580.893
  H      451.242    -560.822    -579.690

 3  4  5  6  7  8  9  10  11  12  23  26  30  31 0
 6-311+G(2d,p)
 ****
 33  35  36  37  38 0
 6-311+G(2d,p)
 ****
 1  2  13  14  15  16  17  18  19  20  21  22  24  25 0
 3-21G
 ****
 27  28  29  32  34  39  40  41  42  43  44  45  46  47  48  49 0
 3-21G
 ****


