%nproc=1
%NoSave
%Mem=1900MB
#P OB98/GEN NMR

erre ene a

0 1
  C      444.942    -116.168     356.806
  O      445.772    -115.900     357.941
  P      446.745    -114.624     357.854
  C      445.035    -113.607     359.558
  O      445.900    -113.399     358.451
  C      445.575    -112.878     360.789
  O      446.909    -113.342     361.112
  C      445.703    -111.373     360.613
  O      444.437    -110.736     360.665
  C      446.641    -111.027     361.761
  O      445.911    -110.948     362.997
  C      447.582    -112.252     361.786
  N      448.885    -111.982     361.192
  C      449.917    -111.719     362.092
  O      449.755    -111.685     363.309
  N      451.141    -111.473     361.536
  C      451.425    -111.434     360.201
  O      452.547    -111.220     359.764
  C      450.287    -111.671     359.301
  C      449.085    -111.931     359.828
  O      446.770    -114.359     356.277
  O      448.079    -114.862     358.482
  H      445.921    -114.556     355.845
  H      446.552    -110.657     363.676
  H      451.904    -111.291     362.170
  H      450.468    -111.623     358.234
  H      448.233    -112.106     359.181
  H      447.741    -112.585     362.819
  H      447.146    -110.069     361.618
  H      446.190    -111.148     359.659
  H      444.917    -113.105     361.636
  H      444.962    -114.676     359.778
  H      444.034    -113.253     359.295
  P      444.133    -109.630     359.539
  C      441.765    -110.611     359.023
  O      443.051    -110.274     358.551
  O      445.495    -109.664     358.699
  O      443.784    -108.289     360.094
  H      445.811    -110.563     358.525
  H      441.088    -110.698     358.171
  H      441.376    -109.848     359.704
  H      441.807    -111.575     359.538
  H      444.349    -117.038     356.995
  H      445.557    -116.335     355.946
  H      444.300    -115.331     356.628

 3  4  5  6  7  8  9  10  11  12  13  24  28  29  30  31  32 0
 6-311+G(2d,p)
 ****
 33  34 0
 6-311+G(2d,p)
 ****
 1  2  14  15  16  17  18  19  20  21  22  23  25  26  27 0
 3-21G
 ****
 35  36  37  38  39  40  41  42  43  44  45 0
 3-21G
 ****


