%nproc=1
%NoSave
%Mem=1900MB
#P OB98/GEN NMR

erre ene a

0 1
  C      188.172    -137.086     -18.643
  O      186.900    -137.015     -18.031
  H      188.072    -137.601     -19.602
  H      188.857    -137.654     -18.009
  H      188.572    -136.084     -18.820
  P      186.787    -136.117     -16.707
  C      186.724    -137.730     -14.675
  O      187.524    -136.935     -15.537
  C      186.357    -139.044     -15.358
  O      187.532    -139.653     -15.940
  C      185.755    -140.088     -14.424
  O      184.365    -139.875     -14.218
  C      186.003    -141.355     -15.226
  O      185.038    -141.453     -16.292
  C      187.403    -141.095     -15.799
  N      190.914    -144.712     -15.255
  C      189.961    -144.541     -16.241
  N      189.933    -145.472     -17.218
  N      189.108    -143.550     -16.267
  C      189.245    -142.701     -15.221
  C      190.149    -142.764     -14.184
  C      191.091    -143.859     -14.172
  O      191.970    -144.047     -13.335
  N      189.989    -141.718     -13.314
  C      188.976    -141.034     -13.812
  N      188.485    -141.593     -14.965
  O      185.237    -136.228     -16.314
  O      187.206    -134.694     -16.860
  H      184.182    -141.665     -15.877
  H      184.944    -135.374     -15.943
  H      191.537    -145.499     -15.276
  H      188.567    -140.132     -13.380
  H      187.535    -141.536     -16.793
  H      185.909    -142.261     -14.625
  H      190.528    -146.287     -17.232
  H      186.303    -140.145     -13.475
  H      189.266    -145.351     -17.970
  H      185.666    -138.815     -16.179
  H      185.808    -137.184     -14.426
  H      187.283    -137.927     -13.754
  P      183.661    -140.668     -13.011
  C      182.223    -142.771     -13.520
  O      183.520    -142.185     -13.516
  O      182.158    -140.123     -13.050
  O      184.295    -140.476     -11.676
  H      181.738    -140.238     -12.176
  H      182.287    -143.777     -13.879
  H      181.578    -142.205     -14.159
  H      181.829    -142.772     -12.525

 6  7  8  9  10  11  12  13  14  15  26  29  33  34 0
 6-311+G(2d,p)
 ****
 36  38  39  40  41 0
 6-311+G(2d,p)
 ****
 1  2  3  4  5  16  17  18  19  20  21  22  23  24  25 0
 3-21G
 ****
 27  28  30  31  32  35  37  42  43  44  45  46  47 0
 3-21G
 ****
 48  49 0
 3-21G
 ****


