%nproc=1
%NoSave
%Mem=1900MB
#P OB98/GEN NMR

erre ene a

0 1
  C     -130.922     599.049    -413.570
  O     -131.623     599.563    -412.448
  P     -131.031     600.765    -411.563
  C     -133.312     601.978    -411.445
  O     -132.276     601.329    -410.727
  C     -134.263     602.702    -410.475
  O     -135.039     601.715    -409.763
  C     -133.555     603.578    -409.434
  O     -134.393     604.726    -409.195
  C     -133.508     602.689    -408.214
  O     -133.360     603.409    -407.006
  C     -134.855     601.944    -408.341
  N     -134.871     600.686    -407.596
  C     -135.490     600.709    -406.343
  O     -135.965     601.746    -405.876
  N     -135.564     599.537    -405.624
  C     -134.991     598.467    -406.095
  N     -135.125     597.308    -405.379
  C     -134.240     598.437    -407.366
  C     -134.249     599.561    -408.063
  O     -130.272     601.794    -412.331
  O     -130.173     600.038    -410.427
  H     -133.335     602.763    -406.259
  H     -129.251     599.824    -410.716
  H     -133.758     597.521    -407.693
  H     -133.753     599.628    -409.015
  H     -135.680     602.597    -408.012
  H     -132.663     601.991    -408.289
  H     -132.573     603.917    -409.770
  H     -134.960     603.303    -411.066
  H     -135.784     597.329    -404.602
  H     -133.873     601.217    -411.995
  H     -135.005     596.402    -405.820
  H     -132.882     602.681    -412.164
  P     -133.925     606.143    -409.803
  C     -136.197     607.370    -410.182
  O     -135.029     607.233    -409.384
  O     -134.242     605.948    -411.364
  O     -132.500     606.520    -409.608
  H     -133.659     606.532    -411.882
  H     -136.840     608.141    -409.746
  H     -136.758     606.425    -410.193
  H     -135.931     607.656    -411.196
  H     -131.490     598.258    -414.014
  H     -129.971     598.672    -413.255
  H     -130.776     599.829    -414.288

 3  4  5  6  7  8  9  10  11  12  13  23  27  28  29  30  32 0
 6-311+G(2d,p)
 ****
 34  35 0
 6-311+G(2d,p)
 ****
 1  2  14  15  16  17  18  19  20  21  22  24  25  26 0
 3-21G
 ****
 31  33  36  37  38  39  40  41  42  43  44  45  46 0
 3-21G
 ****


