%nproc=1
%NoSave
%Mem=1900MB
#P OB98/GEN NMR

erre ene a

0 1
  C      575.531    -301.947     685.877
  O      575.301    -301.812     687.278
  P      576.011    -302.858     688.267
  C      577.790    -301.142     688.982
  O      577.549    -302.434     688.431
  C      578.366    -301.257     690.410
  O      579.641    -301.955     690.356
  C      578.654    -299.927     691.110
  O      577.606    -299.318     691.868
  C      579.737    -300.329     692.105
  O      579.122    -300.897     693.290
  C      580.506    -301.421     691.372
  N      585.320    -302.651     690.041
  C      584.320    -303.365     690.618
  N      583.070    -302.969     690.932
  C      582.880    -301.676     690.602
  C      583.799    -300.827     690.010
  C      585.076    -301.349     689.737
  N      586.089    -300.623     689.157
  N      583.243    -299.571     689.808
  C      582.021    -299.668     690.298
  N      581.749    -300.927     690.776
  O      575.765    -304.304     687.976
  O      575.387    -302.446     689.692
  H      578.433    -300.254     693.579
  H      575.249    -303.267     690.218
  H      584.560    -304.407     690.854
  H      581.314    -298.858     690.341
  H      580.783    -302.250     692.034
  H      580.338    -299.475     692.449
  H      579.061    -299.196     690.398
  H      577.682    -301.858     691.024
  H      576.863    -300.563     689.006
  H      586.984    -301.061     689.028
  H      585.940    -299.633     688.971
  H      578.486    -300.609     688.299
  P      576.456    -298.434     691.152
  C      574.539    -300.090     690.518
  O      575.717    -299.421     690.126
  O      576.933    -297.162     690.546
  O      575.383    -298.259     692.325
  H      574.920    -299.075     692.568
  H      574.081    -300.548     689.617
  H      573.830    -299.400     690.954
  H      574.756    -300.900     691.224
  H      574.995    -301.184     685.352
  H      575.193    -302.908     685.551
  H      576.578    -301.850     685.676

 3  4  5  6  7  8  9  10  11  12  22  25  29  30  31  32 0
 6-311+G(2d,p)
 ****
 33  36  37 0
 6-311+G(2d,p)
 ****
 1  2  13  14  15  16  17  18  19  20  21  23  24  26 0
 3-21G
 ****
 27  28  34  35  38  39  40  41  42  43  44  45  46  47  48 0
 3-21G
 ****


