%nproc=1
%NoSave
%Mem=1900MB
#P OB98/GEN NMR

erre ene a

0 1
  C      548.975     581.656    -276.320
  O      549.936     580.822    -275.700
  P      549.411     579.523    -274.927
  C      551.671     578.226    -275.053
  O      550.681     578.836    -274.232
  C      552.542     577.295    -274.206
  O      551.718     576.325    -273.521
  C      553.546     576.489    -275.020
  O      554.672     577.266    -275.371
  C      553.862     575.341    -274.061
  O      554.866     575.735    -273.110
  C      552.505     575.125    -273.361
  N      551.806     573.943    -273.864
  C      551.997     572.772    -273.139
  O      552.725     572.701    -272.153
  N      551.348     571.660    -273.619
  C      550.589     571.605    -274.752
  O      550.081     570.560    -275.163
  C      550.453     572.870    -275.494
  C      551.056     573.959    -275.020
  O      549.025     578.507    -276.106
  O      548.262     579.767    -274.007
  H      555.701     575.848    -273.614
  H      548.239     577.982    -275.846
  H      551.448     570.807    -273.093
  H      549.857     572.852    -276.397
  H      550.979     574.895    -275.562
  H      552.656     574.998    -272.285
  H      554.244     574.464    -274.583
  H      553.054     576.080    -275.912
  H      553.056     577.894    -273.446
  H      552.293     579.003    -275.505
  H      551.179     577.667    -275.855
  P      555.908     576.494    -276.043
  C      556.047     578.494    -277.715
  O      556.722     577.623    -276.839
  O      555.150     575.646    -277.174
  O      556.684     575.671    -275.070
  H      554.367     576.120    -277.520
  H      555.049     578.749    -277.345
  H      555.965     578.029    -278.701
  H      556.630     579.422    -277.811
  H      549.469     582.478    -276.794
  H      548.295     582.026    -275.582
  H      548.435     581.094    -277.053

 3  4  5  6  7  8  9  10  11  12  13  23  28  29  30  31  32 0
 6-311+G(2d,p)
 ****
 33  34 0
 6-311+G(2d,p)
 ****
 1  2  14  15  16  17  18  19  20  21  22  24  25  26 0
 3-21G
 ****
 27  35  36  37  38  39  40  41  42  43  44  45 0
 3-21G
 ****


