%nproc=1
%NoSave
%Mem=1900MB
#P OB98/GEN NMR

erre ene a

0 1
  C      -72.757    -234.372     547.199
  O      -71.686    -233.486     546.947
  H      -73.685    -233.913     546.845
  H      -72.843    -234.563     548.271
  H      -72.602    -235.315     546.665
  P      -70.224    -233.970     547.398
  C      -70.432    -232.018     549.095
  O      -69.581    -232.743     548.221
  C      -70.286    -230.514     548.847
  O      -68.928    -230.106     549.184
  C      -70.545    -230.094     547.391
  O      -71.222    -228.833     547.388
  C      -69.146    -229.902     546.835
  O      -69.125    -229.033     545.704
  C      -68.424    -229.354     548.062
  N      -64.096    -226.854     548.652
  C      -65.396    -226.464     548.900
  N      -65.576    -225.210     549.376
  N      -66.436    -227.234     548.697
  C      -66.104    -228.468     548.243
  C      -64.858    -228.975     547.948
  C      -63.721    -228.104     548.154
  O      -62.544    -228.380     547.935
  N      -64.947    -230.259     547.478
  C      -66.242    -230.533     547.491
  N      -66.983    -229.476     547.948
  O      -69.395    -233.974     546.026
  O      -70.167    -235.289     548.094
  H      -69.328    -228.126     546.017
  H      -68.691    -234.653     546.052
  H      -63.335    -226.215     548.815
  H      -66.691    -231.466     547.176
  H      -68.639    -228.294     548.235
  H      -68.724    -230.871     546.529
  H      -64.826    -224.574     549.586
  H      -71.125    -230.824     546.821
  H      -66.524    -224.906     549.574
  H      -70.952    -229.977     549.536
  H      -70.158    -232.244     550.131
  H      -71.468    -232.318     548.921
  P      -72.830    -228.853     547.385
  C      -73.174    -227.312     545.316
  O      -73.360    -227.492     546.716
  O      -73.194    -228.673     548.939
  O      -73.419    -230.114     546.833
  H      -73.533    -229.509     549.291
  H      -73.576    -226.365     545.022
  H      -73.677    -228.094     544.786
  H      -72.129    -227.342     545.088

 6  7  8  9  10  11  12  13  14  15  26  29  33  34 0
 6-311+G(2d,p)
 ****
 36  38  39  40  41 0
 6-311+G(2d,p)
 ****
 1  2  3  4  5  16  17  18  19  20  21  22  23  24  25 0
 3-21G
 ****
 27  28  30  31  32  35  37  42  43  44  45  46  47 0
 3-21G
 ****
 48  49 0
 3-21G
 ****


