%nproc=1
%NoSave
%Mem=1900MB
#P OB98/GEN NMR

erre ene a

0 1
  C     -284.621     -10.932     -47.205
  O     -284.315     -10.797     -45.836
  P     -285.132      -9.874     -44.828
  C     -283.156      -8.380     -43.980
  O     -284.379      -8.459     -44.708
  C     -283.223      -7.284     -42.909
  O     -283.288      -5.990     -43.574
  C     -284.495      -7.411     -42.053
  O     -284.287      -7.187     -40.663
  C     -285.481      -6.490     -42.770
  O     -286.570      -6.076     -41.951
  C     -284.557      -5.380     -43.267
  N     -288.298      -2.629     -45.337
  C     -288.098      -2.966     -44.010
  N     -289.107      -2.677     -43.168
  N     -287.012      -3.552     -43.574
  C     -286.137      -3.872     -44.551
  C     -286.228      -3.594     -45.898
  C     -287.414      -2.918     -46.366
  O     -287.692      -2.707     -47.544
  N     -285.181      -4.137     -46.602
  C     -284.476      -4.772     -45.690
  N     -285.029      -4.668     -44.440
  O     -285.624     -10.513     -43.574
  O     -286.428      -9.483     -45.718
  H     -286.208      -5.504     -41.254
  H     -287.183      -9.408     -45.103
  H     -289.193      -2.248     -45.628
  H     -283.575      -5.343     -45.886
  H     -284.393      -4.623     -42.498
  H     -285.907      -7.051     -43.601
  H     -290.009      -2.362     -43.498
  H     -284.883      -8.435     -42.085
  H     -289.090      -3.132     -42.256
  H     -282.309      -7.307     -42.310
  H     -282.377      -8.141     -44.715
  H     -282.910      -9.346     -43.533
  P     -284.549      -8.175     -39.437
  C     -286.868      -7.152     -39.003
  O     -286.131      -8.341     -39.241
  O     -284.120      -7.344     -38.143
  O     -283.796      -9.461     -39.498
  H     -283.661      -7.941     -37.509
  H     -287.852      -7.416     -38.627
  H     -286.980      -6.601     -39.943
  H     -286.359      -6.520     -38.271
  H     -283.926     -11.606     -47.661
  H     -284.555      -9.976     -47.681
  H     -285.614     -11.316     -47.312

 3  4  5  6  7  8  9  10  11  12  23  26  30  31 0
 6-311+G(2d,p)
 ****
 33  35  36  37  38 0
 6-311+G(2d,p)
 ****
 1  2  13  14  15  16  17  18  19  20  21  22  24  25 0
 3-21G
 ****
 27  28  29  32  34  39  40  41  42  43  44  45  46  47  48  49 0
 3-21G
 ****


