%nproc=1
%NoSave
%Mem=1900MB
#P OB98/GEN NMR

erre ene a

0 1
  C     -264.929     -43.354    -103.563
  O     -264.713     -44.461    -102.710
  P     -265.924     -45.394    -102.235
  C     -265.513     -47.008    -104.188
  O     -266.465     -46.188    -103.518
  C     -265.957     -48.472    -104.223
  O     -267.296     -48.550    -104.795
  C     -265.042     -49.387    -105.050
  O     -264.979     -50.643    -104.360
  C     -265.789     -49.539    -106.357
  O     -265.407     -50.704    -107.074
  C     -267.243     -49.523    -105.861
  N     -268.186     -49.196    -106.923
  C     -268.367     -50.158    -107.926
  O     -267.656     -51.163    -107.955
  N     -269.350     -49.952    -108.866
  C     -269.951     -48.801    -108.914
  N     -270.961     -48.656    -109.819
  C     -269.605     -47.669    -108.028
  C     -268.756     -47.953    -107.040
  O     -266.980     -44.703    -101.439
  O     -265.215     -46.545    -101.370
  H     -265.650     -46.601    -100.495
  H     -265.934     -50.756    -107.904
  H     -270.040     -46.698    -108.186
  H     -268.456     -47.194    -106.320
  H     -267.512     -50.493    -105.432
  H     -265.593     -48.668    -106.999
  H     -264.030     -48.980    -105.159
  H     -266.031     -48.832    -103.189
  H     -271.200     -49.463    -110.383
  H     -264.565     -46.939    -103.647
  H     -271.681     -47.941    -109.718
  H     -265.349     -46.632    -105.199
  P     -263.561     -51.401    -104.290
  C     -262.627     -49.667    -102.601
  O     -262.452     -50.341    -103.830
  O     -263.222     -51.586    -105.854
  O     -263.546     -52.734    -103.615
  H     -262.622     -52.350    -105.962
  H     -261.820     -48.934    -102.484
  H     -262.582     -50.378    -101.769
  H     -263.587     -49.137    -102.585
  H     -263.997     -42.867    -103.758
  H     -265.599     -42.666    -103.091
  H     -265.355     -43.692    -104.485

 3  4  5  6  7  8  9  10  11  12  13  24  27  28  29  30  32 0
 6-311+G(2d,p)
 ****
 34  35 0
 6-311+G(2d,p)
 ****
 1  2  14  15  16  17  18  19  20  21  22  23  25  26 0
 3-21G
 ****
 31  33  36  37  38  39  40  41  42  43  44  45  46 0
 3-21G
 ****


