%nproc=1
%NoSave
%Mem=1900MB
#P OB98/GEN NMR

erre ene a

0 1
  C      -64.665      42.958      -9.355
  O      -65.323      41.817      -9.875
  H      -65.293      43.836      -9.531
  H      -63.704      43.110      -9.855
  H      -64.511      42.849      -8.277
  P      -64.570      40.407      -9.812
  C      -64.437      40.343     -12.397
  O      -63.722      40.287     -11.167
  C      -64.621      38.941     -12.976
  O      -65.334      39.007     -14.227
  C      -63.313      38.220     -13.280
  O      -62.712      37.754     -12.088
  C      -63.806      37.136     -14.227
  O      -64.430      36.062     -13.504
  C      -64.856      37.917     -15.057
  N      -64.340      38.421     -16.327
  C      -63.784      37.464     -17.186
  O      -63.738      36.280     -16.850
  N      -63.283      37.887     -18.394
  C      -63.365      39.134     -18.734
  N      -62.854      39.483     -19.944
  C      -63.976      40.165     -17.874
  C      -64.428      39.745     -16.692
  O      -65.425      39.214      -9.509
  O      -63.441      40.621      -8.697
  H      -64.653      35.381     -14.169
  H      -63.761      40.321      -7.825
  H      -64.034      41.197     -18.202
  H      -64.890      40.440     -15.996
  H      -65.726      37.282     -15.274
  H      -62.997      36.700     -14.818
  H      -62.635      38.877     -13.833
  H      -65.236      38.362     -12.274
  H      -62.460      38.738     -20.509
  H      -63.853      40.962     -13.084
  H      -63.007      40.383     -20.379
  H      -65.415      40.821     -12.252
  P      -61.132      37.497     -11.992
  C      -61.536      34.958     -12.104
  O      -60.878      36.072     -12.690
  O      -60.548      37.640     -10.627
  O      -60.518      38.517     -13.060
  H      -60.505      39.437     -12.695
  H      -61.292      34.071     -12.651
  H      -62.594      35.114     -12.131
  H      -61.217      34.849     -11.088

 6  7  8  9  10  11  12  13  14  15  16  26  30  31  32  33  35 0
 6-311+G(2d,p)
 ****
 37  38 0
 6-311+G(2d,p)
 ****
 1  2  3  4  5  17  18  19  20  21  22  23  24  25 0
 3-21G
 ****
 27  28  29  34  36  39  40  41  42  43  44  45  46 0
 3-21G
 ****


