%nproc=1
%NoSave
%Mem=1900MB
#P OB98/GEN NMR

erre ene a

0 1
  C      -32.091     377.304     427.305
  O      -32.182     376.420     428.398
  P      -33.474     376.286     429.330
  C      -33.173     378.577     430.557
  O      -33.235     377.162     430.656
  C      -33.926     379.243     431.720
  O      -33.906     380.682     431.521
  C      -35.404     378.805     431.751
  O      -35.909     378.552     433.055
  C      -36.093     379.895     430.938
  O      -37.489     379.991     431.171
  C      -35.273     381.135     431.300
  N      -37.955     384.746     428.946
  C      -38.270     384.034     430.086
  N      -39.533     384.179     430.548
  N      -37.431     383.233     430.697
  C      -36.249     383.103     430.050
  C      -35.825     383.758     428.920
  C      -36.750     384.668     428.272
  O      -36.545     385.236     427.199
  N      -34.579     383.325     428.513
  C      -34.271     382.390     429.383
  N      -35.261     382.195     430.319
  O      -34.056     374.921     429.483
  O      -34.549     377.186     428.522
  H      -37.893     379.151     430.889
  H      -35.429     376.770     428.652
  H      -38.675     385.284     428.472
  H      -33.350     381.801     429.364
  H      -35.621     381.581     432.235
  H      -35.968     379.646     429.870
  H      -40.241     384.669     430.018
  H      -35.532     377.841     431.234
  H      -39.864     383.487     431.223
  H      -33.413     379.029     432.662
  H      -33.630     378.845     429.604
  H      -32.125     378.914     430.533
  P      -36.691     377.268     433.588
  C      -39.136     377.877     433.083
  O      -38.141     377.718     434.084
  O      -35.956     376.867     434.951
  O      -36.693     376.098     432.645
  H      -35.889     375.899     435.025
  H      -39.973     378.443     433.501
  H      -39.498     376.897     432.766
  H      -38.733     378.421     432.220
  H      -31.130     377.205     426.845
  H      -32.221     378.309     427.648
  H      -32.853     377.069     426.592

 3  4  5  6  7  8  9  10  11  12  23  26  30  31 0
 6-311+G(2d,p)
 ****
 33  35  36  37  38 0
 6-311+G(2d,p)
 ****
 1  2  13  14  15  16  17  18  19  20  21  22  24  25 0
 3-21G
 ****
 27  28  29  32  34  39  40  41  42  43  44  45  46  47  48  49 0
 3-21G
 ****


