%nproc=1
%NoSave
%Mem=1900MB
#P OB98/GEN NMR

erre ene a

0 1
  C      801.693     255.170     256.592
  O      800.531     254.925     257.374
  P      799.074     254.822     256.706
  C      798.668     257.323     257.256
  O      798.204     256.006     257.396
  C      798.169     258.188     258.421
  O      798.773     259.509     258.306
  C      796.655     258.374     258.461
  O      796.265     258.422     259.843
  C      796.453     259.722     257.793
  O      795.211     260.334     258.150
  C      797.698     260.470     258.297
  N      798.037     261.619     257.454
  C      798.049     262.894     258.064
  O      797.760     263.023     259.250
  N      798.395     263.972     257.300
  C      798.623     263.838     256.023
  N      799.014     264.919     255.315
  C      798.506     262.527     255.319
  C      798.243     261.485     256.099
  O      798.445     253.482     256.754
  O      799.276     255.407     255.230
  H      795.047     261.072     257.527
  H      799.599     254.717     254.587
  H      798.676     262.455     254.257
  H      798.170     260.483     255.688
  H      797.560     260.801     259.332
  H      796.472     259.612     256.700
  H      796.101     257.567     257.967
  H      798.535     257.745     259.352
  H      799.247     265.753     255.861
  H      798.270     257.735     256.319
  H      799.507     264.834     254.439
  H      799.759     257.333     257.203
  P      794.796     257.911     260.246
  C      794.205     260.324     261.012
  O      794.179     258.946     261.317
  O      795.151     256.629     261.172
  O      793.918     257.498     259.112
  H      794.391     256.021     261.145
  H      793.750     260.872     261.846
  H      793.641     260.513     260.108
  H      795.243     260.674     260.895
  H      802.552     255.201     257.229
  H      801.591     256.107     256.086
  H      801.810     254.387     255.873

 3  4  5  6  7  8  9  10  11  12  13  23  27  28  29  30  32 0
 6-311+G(2d,p)
 ****
 34  35 0
 6-311+G(2d,p)
 ****
 1  2  14  15  16  17  18  19  20  21  22  24  25  26 0
 3-21G
 ****
 31  33  36  37  38  39  40  41  42  43  44  45  46 0
 3-21G
 ****


