%nproc=1
%NoSave
%Mem=1900MB
#P OB98/GEN NMR

erre ene a

0 1
  C      444.396     255.707     974.833
  O      444.772     254.382     974.497
  H      445.211     256.382     974.578
  H      444.208     255.761     975.910
  H      443.495     256.006     974.282
  P      443.609     253.281     974.413
  C      442.960     254.481     972.192
  O      442.502     253.859     973.397
  C      441.953     254.259     971.069
  O      441.873     252.824     970.785
  C      440.524     254.758     971.382
  O      439.955     255.299     970.177
  C      439.793     253.478     971.731
  O      438.387     253.592     971.546
  C      440.469     252.502     970.779
  N      437.031     248.837     970.667
  C      437.068     250.055     970.011
  N      435.993     250.375     969.252
  N      438.065     250.889     970.102
  C      439.089     250.429     970.877
  C      439.164     249.249     971.578
  C      438.043     248.347     971.488
  O      437.939     247.260     972.060
  N      440.342     249.193     972.301
  C      440.945     250.332     972.039
  N      440.226     251.121     971.181
  O      442.903     253.411     975.848
  O      444.063     251.896     974.144
  H      438.219     253.845     970.611
  H      443.275     252.745     976.457
  H      436.218     248.238     970.590
  H      441.896     250.645     972.463
  H      440.093     252.588     969.748
  H      439.987     253.210     972.785
  H      435.190     249.780     969.117
  H      440.487     255.511     972.183
  H      436.030     251.252     968.743
  H      442.336     254.740     970.157
  H      443.927     254.037     971.914
  H      443.105     255.547     972.384
  P      439.138     256.671     970.283
  C      440.397     257.492     968.146
  O      439.945     257.801     969.452
  O      439.364     257.121     971.807
  O      437.690     256.554     969.946
  H      438.563     257.580     972.136
  H      440.908     258.338     967.736
  H      439.559     257.247     967.527
  H      441.065     256.657     968.188

 6  7  8  9  10  11  12  13  14  15  26  29  33  34 0
 6-311+G(2d,p)
 ****
 36  38  39  40  41 0
 6-311+G(2d,p)
 ****
 1  2  3  4  5  16  17  18  19  20  21  22  23  24  25 0
 3-21G
 ****
 27  28  30  31  32  35  37  42  43  44  45  46  47 0
 3-21G
 ****
 48  49 0
 3-21G
 ****


