%nproc=1
%NoSave
%Mem=1900MB
#P OB98/GEN NMR

erre ene a

0 1
  C     -898.170    1142.107    -837.755
  O     -898.640    1140.754    -837.616
  P     -898.630    1139.815    -838.933
  C     -897.940    1137.720    -837.538
  O     -897.650    1138.581    -838.649
  C     -896.980    1136.486    -837.516
  O     -897.220    1135.634    -838.685
  C     -895.480    1136.855    -837.544
  O     -894.790    1135.857    -836.843
  C     -895.150    1136.775    -839.053
  O     -893.720    1136.667    -839.233
  C     -895.970    1135.559    -839.426
  N     -893.830    1135.251    -844.006
  C     -893.250    1135.323    -842.730
  N     -891.900    1135.307    -842.689
  N     -893.910    1135.450    -841.644
  C     -895.270    1135.434    -841.831
  C     -895.970    1135.352    -843.015
  C     -895.190    1135.277    -844.241
  O     -895.670    1135.216    -845.391
  N     -897.330    1135.395    -842.823
  C     -897.450    1135.522    -841.493
  N     -896.240    1135.487    -840.834
  O     -897.850    1140.708    -840.011
  O     -900.000    1139.462    -839.430
  H     -893.590    1136.347    -840.155
  H     -898.470    1141.021    -840.679
  H     -893.240    1135.177    -844.823
  H     -898.380    1135.582    -840.974
  H     -895.490    1134.617    -839.146
  H     -895.500    1137.683    -839.547
  H     -891.300    1135.175    -843.503
  H     -895.270    1137.868    -837.099
  H     -891.460    1135.321    -841.790
  H     -897.200    1135.912    -836.597
  H     -898.980    1137.378    -837.622
  H     -897.880    1138.311    -836.613
  P     -894.050    1136.311    -835.479
  C     -895.190    1134.525    -833.978
  O     -895.050    1135.909    -834.245
  O     -894.110    1137.882    -835.497
  O     -892.610    1135.795    -835.323
  H     -893.420    1138.284    -834.959
  H     -894.590    1134.291    -833.071
  H     -894.850    1133.887    -834.807
  H     -896.230    1134.314    -833.768
  H     -898.234    1142.606    -836.810
  H     -898.774    1142.623    -838.472
  H     -897.153    1142.099    -838.086

 3  4  5  6  7  8  9  10  11  12  23  26  30  31 0
 6-311+G(2d,p)
 ****
 33  35  36  37  38 0
 6-311+G(2d,p)
 ****
 1  2  13  14  15  16  17  18  19  20  21  22  24  25 0
 3-21G
 ****
 27  28  29  32  34  39  40  41  42  43  44  45  46  47  48  49 0
 3-21G
 ****


