%nproc=1
%NoSave
%Mem=1900MB
#P OB98/GEN NMR

erre ene a

0 1
  C     -376.042    -167.410     -47.919
  O     -376.494    -168.530     -47.152
  P     -375.537    -169.315     -46.131
  C     -376.906    -168.550     -44.091
  O     -375.619    -168.596     -44.698
  C     -377.051    -167.345     -43.140
  O     -377.032    -166.100     -43.903
  C     -378.344    -167.323     -42.329
  O     -378.239    -168.194     -41.220
  C     -378.429    -165.834     -41.968
  O     -377.589    -165.529     -40.847
  C     -377.910    -165.159     -43.249
  N     -381.298    -161.454     -44.201
  C     -380.357    -161.591     -43.242
  N     -379.491    -162.622     -43.052
  C     -379.659    -163.561     -44.003
  C     -380.578    -163.560     -45.037
  C     -381.432    -162.449     -45.124
  N     -382.399    -162.321     -46.094
  N     -380.454    -164.717     -45.794
  C     -379.466    -165.375     -45.231
  N     -378.952    -164.720     -44.143
  O     -374.141    -169.522     -46.632
  O     -376.267    -170.719     -45.887
  H     -377.494    -164.566     -40.816
  H     -375.605    -171.397     -45.659
  H     -380.290    -160.773     -42.539
  H     -379.095    -166.342     -45.578
  H     -377.293    -164.278     -43.001
  H     -379.444    -165.528     -41.707
  H     -379.190    -167.593     -42.972
  H     -376.177    -167.323     -42.486
  H     -377.049    -169.474     -43.508
  H     -382.998    -161.513     -46.073
  H     -382.546    -163.073     -46.756
  H     -377.666    -168.501     -44.871
  P     -378.608    -169.752     -41.394
  C     -376.253    -170.402     -40.592
  O     -377.212    -170.539     -41.608
  O     -379.665    -170.060     -42.409
  O     -379.043    -170.209     -39.939
  H     -379.697    -170.935     -40.011
  H     -375.738    -169.447     -40.686
  H     -375.533    -171.216     -40.666
  H     -376.730    -170.441     -39.598
  H     -376.844    -167.047     -48.527
  H     -375.228    -167.711     -48.545
  H     -375.716    -166.634     -47.259

 3  4  5  6  7  8  9  10  11  12  22  25  29  30  31  32 0
 6-311+G(2d,p)
 ****
 33  36  37 0
 6-311+G(2d,p)
 ****
 1  2  13  14  15  16  17  18  19  20  21  23  24  26 0
 3-21G
 ****
 27  28  34  35  38  39  40  41  42  43  44  45  46  47  48 0
 3-21G
 ****


