%nproc=1
%NoSave
%Mem=1900MB
#P OB98/GEN NMR

erre ene a

0 1
  C       49.937    -224.185    -282.564
  O       50.704    -222.997    -282.568
  H       48.878    -223.916    -282.534
  H       50.176    -224.783    -281.687
  H       50.125    -224.763    -283.476
  P       52.301    -223.179    -282.630
  C       53.851    -222.349    -284.555
  O       52.842    -222.033    -283.610
  C       54.209    -221.115    -285.394
  O       53.054    -220.757    -286.213
  C       54.564    -219.875    -284.563
  O       55.480    -219.075    -285.327
  C       53.219    -219.171    -284.468
  O       53.376    -217.840    -284.021
  C       52.719    -219.384    -285.902
  N       49.178    -216.633    -288.362
  C       50.524    -216.666    -288.464
  N       51.401    -217.436    -287.787
  C       50.755    -218.249    -286.927
  C       49.395    -218.342    -286.717
  C       48.580    -217.475    -287.482
  N       47.210    -217.440    -287.368
  N       49.098    -219.298    -285.758
  C       50.273    -219.776    -285.400
  N       51.305    -219.172    -286.070
  O       52.482    -224.528    -283.482
  O       52.991    -223.259    -281.310
  H       52.547    -217.331    -284.138
  H       52.584    -225.288    -282.880
  H       50.956    -215.977    -289.190
  H       50.441    -220.547    -284.654
  H       53.248    -218.741    -286.614
  H       52.560    -219.674    -283.749
  H       55.013    -220.112    -283.594
  H       55.023    -221.375    -286.088
  H       53.477    -223.151    -285.206
  H       54.749    -222.708    -284.030
  H       46.702    -216.777    -287.942
  H       46.750    -218.047    -286.705
  P       56.989    -218.876    -284.799
  C       59.023    -217.965    -286.174
  O       57.700    -217.751    -285.695
  O       57.699    -220.218    -285.309
  O       57.139    -218.729    -283.317
  H       58.440    -220.434    -284.723
  H       59.335    -217.118    -286.749
  H       59.043    -218.841    -286.789
  H       59.686    -218.097    -285.344

 6  7  8  9  10  11  12  13  14  15  25  28  32  33  34  35 0
 6-311+G(2d,p)
 ****
 36  37  40 0
 6-311+G(2d,p)
 ****
 1  2  3  4  5  16  17  18  19  20  21  22  23  24 0
 3-21G
 ****
 26  27  29  30  31  38  39 41  42  43  44  45  46  47  48 0
 3-21G
 ****


