%nproc=1
%NoSave
%Mem=1900MB
#P OB98/GEN NMR

erre ene a

0 1
  C      466.267    -593.778     288.933
  O      467.252    -593.281     289.848
  P      468.667    -594.034     289.907
  C      468.204    -595.113     292.231
  O      469.046    -594.279     291.448
  C      468.675    -595.110     293.694
  O      469.983    -595.711     293.843
  C      468.792    -593.703     294.290
  O      467.533    -593.208     294.746
  C      469.705    -593.967     295.486
  O      468.940    -594.513     296.567
  C      470.666    -595.016     294.928
  N      474.981    -592.686     296.207
  C      473.941    -593.158     296.999
  N      474.075    -592.969     298.334
  N      472.882    -593.741     296.535
  C      472.879    -593.871     295.180
  C      473.843    -593.443     294.284
  C      475.017    -592.790     294.817
  O      475.962    -592.345     294.163
  N      473.486    -593.756     292.995
  C      472.327    -594.376     293.099
  N      471.901    -594.441     294.417
  O      469.703    -592.882     289.461
  O      468.770    -595.232     289.013
  H      469.586    -594.957     297.173
  H      470.483    -593.277     289.042
  H      475.775    -592.250     296.619
  H      471.757    -594.769     292.283
  H      470.950    -595.768     295.667
  H      470.177    -593.052     295.855
  H      474.902    -592.576     298.766
  H      469.280    -593.011     293.579
  H      473.345    -593.334     298.930
  H      467.945    -595.678     294.285
  H      468.222    -596.137     291.844
  H      467.172    -594.764     292.142
  P      466.596    -592.456     293.673
  C      467.051    -590.224     294.901
  O      466.091    -591.122     294.392
  O      465.292    -593.407     293.641
  O      467.196    -592.300     292.322
  H      464.893    -593.360     292.761
  H      466.549    -589.300     295.216
  H      467.803    -589.979     294.159
  H      467.545    -590.661     295.792
  H      465.382    -593.181     289.003
  H      466.033    -594.793     289.177
  H      466.651    -593.730     287.935

 3  4  5  6  7  8  9  10  11  12  23  26  30  31 0
 6-311+G(2d,p)
 ****
 33  35  36  37  38 0
 6-311+G(2d,p)
 ****
 1  2  13  14  15  16  17  18  19  20  21  22  24  25 0
 3-21G
 ****
 27  28  29  32  34  39  40  41  42  43  44  45  46  47  48  49 0
 3-21G
 ****


