%nproc=1
%NoSave
%Mem=1900MB
#P OB98/GEN NMR

erre ene a

0 1
  C     -754.415     206.150    -894.380
  O     -753.404     205.734    -895.300
  P     -752.941     206.804    -896.420
  C     -750.461     207.090    -895.670
  O     -751.734     207.684    -895.810
  C     -749.350     208.135    -895.430
  O     -749.156     208.949    -896.610
  C     -749.677     209.118    -894.290
  O     -748.461     209.513    -893.690
  C     -750.286     210.291    -895.030
  O     -750.282     211.474    -894.210
  C     -749.409     210.335    -896.260
  N     -750.922     214.853    -897.930
  C     -750.341     214.486    -896.710
  N     -750.125     215.484    -895.830
  N     -750.032     213.284    -896.380
  C     -750.283     212.392    -897.380
  C     -750.855     212.618    -898.620
  C     -751.223     213.987    -898.930
  O     -751.735     214.365    -900.000
  N     -750.968     211.460    -899.370
  C     -750.496     210.508    -898.560
  N     -750.031     211.042    -897.350
  O     -754.171     207.824    -896.460
  O     -752.668     206.208    -897.760
  H     -750.673     212.194    -894.750
  H     -754.654     207.706    -897.300
  H     -751.145     215.836    -898.090
  H     -750.450     209.471    -898.780
  H     -748.450     210.816    -896.070
  H     -751.334     210.070    -895.280
  H     -750.284     216.472    -896.020
  H     -750.348     208.690    -893.510
  H     -749.667     215.255    -894.940
  H     -748.411     207.601    -895.210
  H     -750.222     206.505    -896.600
  H     -750.499     206.332    -894.870
  P     -747.877     208.586    -892.520
  C     -746.024     207.720    -894.110
  O     -747.084     207.379    -893.230
  O     -749.147     207.888    -891.890
  O     -747.073     209.338    -891.450
  H     -749.011     207.612    -890.990
  H     -745.058     207.537    -893.610
  H     -746.066     208.756    -894.440
  H     -746.084     207.068    -895.000
  H     -754.626     205.353    -893.698
  H     -755.304     206.404    -894.918
  H     -754.072     207.004    -893.835

 3  4  5  6  7  8  9  10  11  12  23  26  30  31 0
 6-311+G(2d,p)
 ****
 33  35  36  37  38 0
 6-311+G(2d,p)
 ****
 1  2  13  14  15  16  17  18  19  20  21  22  24  25 0
 3-21G
 ****
 27  28  29  32  34  39  40  41  42  43  44  45  46  47  48  49 0
 3-21G
 ****


