%nproc=1
%NoSave
%Mem=1900MB
#P OB98/GEN NMR

erre ene a

0 1
  C     -108.272    -282.271    -411.276
  O     -109.530    -282.445    -410.655
  H     -107.749    -283.228    -411.347
  H     -108.428    -281.882    -412.286
  H     -107.667    -281.555    -410.712
  P     -109.525    -283.006    -409.151
  C     -109.054    -285.335    -408.102
  O     -109.350    -284.595    -409.278
  C     -109.958    -286.561    -408.025
  O     -109.638    -287.483    -409.091
  C     -109.826    -287.359    -406.732
  O     -110.570    -286.789    -405.673
  C     -110.416    -288.690    -407.165
  O     -111.851    -288.596    -407.202
  C     -109.856    -288.830    -408.588
  N     -107.669    -293.422    -408.003
  C     -108.943    -293.002    -407.848
  N     -109.444    -291.763    -408.021
  C     -108.477    -290.909    -408.388
  C     -107.134    -291.187    -408.574
  C     -106.732    -292.516    -408.376
  N     -105.430    -292.944    -408.514
  N     -106.439    -290.039    -408.917
  C     -107.359    -289.096    -408.970
  N     -108.603    -289.568    -408.646
  O     -111.047    -282.844    -408.683
  O     -108.566    -282.345    -408.218
  H     -112.170    -289.364    -407.715
  H     -111.099    -282.843    -407.709
  H     -109.655    -293.766    -407.548
  H     -107.174    -288.063    -409.230
  H     -110.558    -289.329    -409.268
  H     -110.164    -289.510    -406.492
  H     -108.774    -287.506    -406.455
  H     -110.994    -286.229    -408.172
  H     -109.227    -284.703    -407.226
  H     -105.219    -293.867    -408.171
  H     -104.710    -292.250    -408.644
  H     -108.004    -285.639    -408.123
  P     -109.872    -286.736    -404.226
  C     -108.132    -288.243    -403.013
  O     -109.068    -288.117    -404.081
  O     -111.102    -286.911    -403.220
  O     -109.088    -285.495    -403.954
  H     -110.908    -286.502    -402.358
  H     -107.680    -289.212    -403.048
  H     -108.638    -288.119    -402.079
  H     -107.376    -287.492    -403.111

 6  7  8  9  10  11  12  13  14  15  25  28  32  33  34  35 0
 6-311+G(2d,p)
 ****
 36  39  40 0
 6-311+G(2d,p)
 ****
 1  2  3  4  5  16  17  18  19  20  21  22  23  24 0
 3-21G
 ****
 26  27  29  30  31  37  38  41  42  43  44  45  46  47 0
 3-21G
 ****
 48 0
 3-21G
 ****


