%nproc=1
%NoSave
%Mem=1900MB
#P OB98/GEN NMR

erre ene a

0 1
  C     -500.445     270.661     736.461
  O     -499.479     271.706     736.415
  P     -499.846     273.024     735.575
  C     -499.327     274.752     737.476
  O     -498.971     274.205     736.215
  C     -498.449     275.966     737.805
  O     -497.074     275.546     738.008
  C     -498.389     277.003     736.692
  O     -499.584     277.760     736.631
  C     -497.156     277.781     737.098
  O     -497.462     278.721     738.141
  C     -496.241     276.672     737.655
  N     -495.176     276.271     736.734
  C     -493.979     276.999     736.836
  O     -493.827     277.924     737.632
  N     -492.983     276.629     735.982
  C     -493.062     275.647     735.036
  O     -492.128     275.344     734.307
  C     -494.360     274.953     734.941
  C     -495.342     275.290     735.781
  O     -501.331     273.310     736.094
  O     -499.710     272.836     734.104
  H     -501.464     273.078     737.036
  H     -498.001     279.423     737.732
  H     -492.105     277.123     736.057
  H     -494.469     274.188     734.181
  H     -496.317     274.803     735.720
  H     -495.774     277.004     738.592
  H     -496.717     278.344     736.255
  H     -498.223     276.517     735.723
  H     -498.816     276.413     738.726
  H     -499.213     274.005     738.267
  H     -500.389     275.031     737.455
  P     -500.493     277.580     735.311
  C     -502.786     278.780     735.753
  O     -501.466     278.868     735.261
  O     -501.456     276.392     735.764
  O     -499.706     277.328     734.078
  H     -501.803     276.485     736.664
  H     -503.151     279.795     735.950
  H     -502.828     278.209     736.680
  H     -503.436     278.313     735.002
  H     -500.068     269.852     737.051
  H     -500.644     270.315     735.468
  H     -501.349     271.030     736.898

 3  4  5  6  7  8  9  10  11  12  13  24  28  29  30  31  32 0
 6-311+G(2d,p)
 ****
 33  34 0
 6-311+G(2d,p)
 ****
 1  2  14  15  16  17  18  19  20  21  22  23  25  26  27 0
 3-21G
 ****
 35  36  37  38  39  40  41  42  43  44  45 0
 3-21G
 ****


