%nproc=1
%NoSave
%Mem=1900MB
#P OB98/GEN NMR

erre ene a

0 1
  C     -343.130    -398.167    -277.060
  O     -343.245    -399.127    -276.004
  P     -342.145    -400.269    -275.741
  C     -341.071    -399.212    -273.646
  O     -340.883    -399.623    -274.996
  C     -339.970    -399.757    -272.730
  O     -338.709    -399.122    -273.012
  C     -340.209    -399.532    -271.241
  O     -341.176    -400.436    -270.737
  C     -338.800    -399.732    -270.683
  O     -338.504    -401.125    -270.507
  C     -337.929    -399.121    -271.802
  N     -337.458    -397.781    -271.472
  C     -336.090    -397.536    -271.670
  O     -335.342    -398.438    -272.042
  N     -335.605    -396.273    -271.410
  C     -336.397    -395.363    -270.925
  N     -335.864    -394.131    -270.694
  C     -337.819    -395.607    -270.620
  C     -338.276    -396.826    -270.915
  O     -341.798    -401.068    -276.956
  O     -342.794    -401.219    -274.619
  H     -338.753    -401.575    -271.340
  H     -342.472    -402.129    -274.747
  H     -338.438    -394.831    -270.192
  H     -339.313    -397.088    -270.736
  H     -337.057    -399.759    -272.001
  H     -338.664    -399.247    -269.710
  H     -340.528    -398.498    -271.064
  H     -339.855    -400.831    -272.941
  H     -334.889    -393.992    -270.923
  H     -342.045    -399.585    -273.306
  H     -336.393    -393.356    -270.323
  H     -341.087    -398.115    -273.607
  P     -342.180    -399.967    -269.576
  C     -344.401    -400.186    -270.851
  O     -343.454    -399.298    -270.277
  O     -341.559    -399.162    -268.480
  O     -342.771    -401.344    -269.010
  H     -342.969    -401.235    -268.057
  H     -345.362    -399.677    -270.922
  H     -344.515    -401.084    -270.235
  H     -344.066    -400.467    -271.850
  H     -343.975    -397.511    -277.039
  H     -343.095    -398.675    -278.001
  H     -342.234    -397.598    -276.928

 3  4  5  6  7  8  9  10  11  12  13  23  27  28  29  30  32 0
 6-311+G(2d,p)
 ****
 34  35 0
 6-311+G(2d,p)
 ****
 1  2  14  15  16  17  18  19  20  21  22  24  25  26 0
 3-21G
 ****
 31  33  36  37  38  39  40  41  42  43  44  45  46 0
 3-21G
 ****


