%nproc=1
%NoSave
%Mem=1900MB
#P OB98/GEN NMR

erre ene a

0 1
  C     -620.918    -364.088     222.771
  O     -621.866    -363.055     222.920
  H     -619.919    -363.667     222.636
  H     -620.919    -364.701     223.677
  H     -621.177    -364.722     221.915
  P     -622.033    -362.038     221.687
  C     -620.775    -360.208     223.042
  O     -620.845    -360.966     221.844
  C     -620.483    -358.749     222.712
  O     -619.208    -358.636     222.049
  C     -621.492    -358.103     221.772
  O     -622.661    -357.671     222.451
  C     -620.687    -356.920     221.264
  O     -620.654    -355.883     222.266
  C     -619.296    -357.540     221.094
  N     -617.825    -356.327     216.343
  C     -617.983    -355.578     217.457
  N     -618.384    -355.981     218.680
  C     -618.627    -357.300     218.699
  C     -618.512    -358.189     217.642
  C     -618.078    -357.655     216.412
  N     -617.927    -358.411     215.271
  N     -618.884    -359.462     218.028
  C     -619.184    -359.346     219.307
  N     -619.052    -358.055     219.755
  O     -623.334    -361.189     222.071
  O     -622.134    -362.666     220.337
  H     -621.562    -355.530     222.330
  H     -623.714    -360.777     221.272
  H     -617.769    -354.517     217.349
  H     -619.493    -360.162     219.948
  H     -618.491    -356.835     221.322
  H     -621.103    -356.472     220.357
  H     -621.736    -358.761     220.927
  H     -620.420    -358.190     223.656
  H     -619.973    -360.604     223.676
  H     -617.793    -357.904     214.410
  H     -618.260    -359.365     215.279
  H     -621.727    -360.293     223.579
  P     -624.073    -357.968     221.745
  C     -624.262    -355.490     220.957
  O     -624.222    -356.873     220.588
  O     -625.135    -357.496     222.847
  O     -624.285    -359.387     221.330
  H     -625.979    -357.974     222.743
  H     -624.364    -354.889     220.078
  H     -623.356    -355.230     221.464
  H     -625.096    -355.318     221.605

 6  7  8  9  10  11  12  13  14  15  25  28  32  33  34  35 0
 6-311+G(2d,p)
 ****
 36  39  40 0
 6-311+G(2d,p)
 ****
 1  2  3  4  5  16  17  18  19  20  21  22  23  24 0
 3-21G
 ****
 26  27  29  30  31  37  38  41  42  43  44  45  46  47 0
 3-21G
 ****
 48 0
 3-21G
 ****


