%nproc=1
%NoSave
%Mem=1900MB
#P OB98/GEN NMR

erre ene a

0 1
  C      -57.428    -332.742      77.657
  O      -58.237    -331.648      77.278
  H      -56.380    -332.476      77.493
  H      -57.664    -333.625      77.058
  H      -57.567    -332.966      78.720
  P      -59.829    -331.828      77.317
  C      -60.952    -330.891      75.186
  O      -60.449    -330.608      76.482
  C      -61.173    -329.596      74.391
  O      -62.279    -328.860      74.986
  C      -59.954    -328.656      74.383
  O      -59.984    -327.926      73.150
  C      -60.271    -327.745      75.553
  O      -59.462    -326.597      75.548
  C      -61.778    -327.557      75.356
  N      -62.436    -327.033      76.542
  C      -62.749    -325.672      76.527
  O      -62.456    -324.978      75.551
  N      -63.356    -325.122      77.626
  C      -63.571    -325.849      78.674
  N      -64.161    -325.240      79.739
  C      -63.201    -327.281      78.755
  C      -62.650    -327.803      77.661
  O      -60.428    -332.028      78.670
  O      -60.098    -333.091      76.367
  H      -59.618    -326.060      74.737
  H      -60.306    -333.873      76.912
  H      -63.384    -327.841      79.663
  H      -62.344    -328.844      77.626
  H      -61.979    -326.877      74.517
  H      -60.080    -328.258      76.502
  H      -59.004    -329.188      74.485
  H      -61.476    -329.858      73.370
  H      -64.388    -324.257      79.643
  H      -61.904    -331.419      75.311
  H      -64.356    -325.703      80.614
  H      -60.257    -331.540      74.643
  P      -58.927    -328.167      71.970
  C      -58.327    -325.897      70.895
  O      -59.146    -327.060      70.829
  O      -58.896    -329.571      71.457
  O      -57.505    -327.771      72.598
  H      -56.810    -328.315      72.179
  H      -58.570    -325.243      70.084
  H      -57.298    -326.181      70.828
  H      -58.498    -325.393      71.823

 6  7  8  9  10  11  12  13  14  15  16  26  30  31  32  33  35 0
 6-311+G(2d,p)
 ****
 37  38 0
 6-311+G(2d,p)
 ****
 1  2  3  4  5  17  18  19  20  21  22  23  24  25 0
 3-21G
 ****
 27  28  29  34  36  39  40  41  42  43  44  45  46 0
 3-21G
 ****


