%nproc=1
%NoSave
%Mem=1900MB
#P OB98/GEN NMR

erre ene a

0 1
  C     -134.092      78.456     -42.027
  O     -132.838      78.541     -41.381
  P     -132.318      77.344     -40.450
  C     -130.561      76.800     -42.259
  O     -131.623      76.297     -41.453
  C     -129.325      75.908     -42.149
  O     -128.709      76.055     -40.854
  C     -129.615      74.422     -42.305
  O     -129.810      74.092     -43.668
  C     -128.369      73.812     -41.676
  O     -127.280      73.774     -42.611
  C     -128.069      74.801     -40.529
  N     -128.499      74.295     -39.233
  C     -127.636      73.382     -38.617
  O     -126.602      73.023     -39.181
  N     -127.993      72.858     -37.397
  C     -129.121      73.200     -36.856
  N     -129.423      72.638     -35.654
  C     -130.072      74.135     -37.488
  C     -129.702      74.638     -38.663
  O     -133.334      76.767     -39.525
  O     -131.065      77.994     -39.692
  H     -127.531      73.123     -43.296
  H     -131.357      78.625     -38.990
  H     -131.005      74.380     -37.003
  H     -130.342      75.329     -39.198
  H     -126.993      75.010     -40.474
  H     -128.540      72.785     -41.341
  H     -130.495      74.151     -41.711
  H     -128.602      76.234     -42.909
  H     -128.758      71.979     -35.270
  H     -130.312      77.807     -41.912
  H     -130.288      72.806     -35.165
  H     -130.898      76.868     -43.299
  P     -130.776      72.880     -44.064
  C     -133.055      73.863     -44.712
  O     -132.273      73.299     -43.678
  O     -130.347      71.534     -43.582
  O     -130.792      72.926     -45.666
  H     -130.703      72.017     -46.011
  H     -134.110      73.792     -44.433
  H     -132.900      73.332     -45.655
  H     -132.791      74.915     -44.836
  H     -134.260      79.345     -42.598
  H     -134.864      78.352     -41.294
  H     -134.101      77.607     -42.678

 3  4  5  6  7  8  9  10  11  12  13  23  27  28  29  30  32 0
 6-311+G(2d,p)
 ****
 34  35 0
 6-311+G(2d,p)
 ****
 1  2  14  15  16  17  18  19  20  21  22  24  25  26 0
 3-21G
 ****
 31  33  36  37  38  39  40  41  42  43  44  45  46 0
 3-21G
 ****


