%nproc=1
%NoSave
%Mem=1900MB
#P OB98/GEN NMR

erre ene a

0 1
  C      687.249    -746.360    -225.795
  O      687.676    -745.184    -226.463
  H      686.161    -746.390    -225.785
  H      687.612    -746.316    -224.760
  H      687.636    -747.253    -226.288
  P      689.199    -745.113    -226.938
  C      690.455    -743.920    -228.877
  O      689.268    -743.999    -228.102
  C      690.163    -743.251    -230.225
  O      689.666    -744.252    -231.160
  C      689.118    -742.132    -230.151
  O      689.494    -741.079    -231.063
  C      687.870    -742.792    -230.680
  O      686.924    -741.848    -231.200
  C      688.473    -743.714    -231.738
  N      684.490    -744.624    -234.664
  C      685.334    -743.544    -234.613
  N      685.058    -742.494    -235.437
  N      686.385    -743.475    -233.835
  C      686.559    -744.578    -233.073
  C      685.789    -745.712    -233.013
  C      684.627    -745.778    -233.883
  O      683.808    -746.697    -233.953
  N      686.264    -746.595    -232.080
  C      687.321    -745.979    -231.545
  N      687.525    -744.754    -232.129
  O      689.393    -746.497    -227.733
  O      690.208    -744.960    -225.850
  H      687.383    -741.316    -231.874
  H      689.764    -747.172    -227.141
  H      683.684    -744.606    -235.270
  H      687.927    -746.359    -230.750
  H      688.747    -743.175    -232.659
  H      687.384    -743.359    -229.889
  H      684.292    -742.483    -236.093
  H      688.986    -741.706    -229.152
  H      685.697    -741.722    -235.449
  H      691.109    -742.871    -230.634
  H      690.826    -744.941    -229.061
  H      691.218    -743.356    -228.323
  P      690.183    -739.754    -230.467
  C      691.524    -737.779    -231.489
  O      690.489    -738.741    -231.656
  O      691.641    -740.275    -230.018
  O      689.458    -739.173    -229.302
  H      691.927    -739.802    -229.227
  H      691.601    -737.181    -232.373
  H      692.453    -738.281    -231.316
  H      691.297    -737.152    -230.652

 6  7  8  9  10  11  12  13  14  15  26  29  33  34 0
 6-311+G(2d,p)
 ****
 36  38  39  40  41 0
 6-311+G(2d,p)
 ****
 1  2  3  4  5  16  17  18  19  20  21  22  23  24  25 0
 3-21G
 ****
 27  28  30  31  32  35  37  42  43  44  45  46  47 0
 3-21G
 ****
 48  49 0
 3-21G
 ****


