%nproc=1
%NoSave
%Mem=1900MB
#P OB98/GEN NMR

erre ene a

0 1
  C     -451.826      88.218     213.617
  O     -452.180      89.150     214.623
  P     -451.359      90.508     214.809
  C     -449.783      89.559     216.681
  O     -449.925      90.154     215.410
  C     -448.289      89.325     216.957
  O     -447.846      88.125     216.297
  C     -447.438      90.486     216.448
  O     -447.189      91.419     217.490
  C     -446.188      89.786     215.950
  O     -445.300      89.502     217.050
  C     -446.773      88.473     215.380
  N     -447.328      88.494     214.015
  C     -447.393      87.313     213.277
  O     -447.042      86.219     213.711
  N     -447.863      87.439     211.993
  C     -448.304      88.594     211.413
  O     -448.489      88.737     210.211
  C     -448.463      89.736     212.324
  C     -447.953      89.644     213.549
  O     -452.106      91.218     216.031
  O     -451.293      91.389     213.604
  H     -444.573      88.957     216.697
  H     -452.730      91.894     215.708
  H     -447.784      86.612     211.412
  H     -448.936      90.630     211.941
  H     -448.023      90.491     214.227
  H     -446.031      87.665     215.416
  H     -445.628      90.419     215.265
  H     -447.930      90.974     215.597
  H     -448.145      89.194     218.036
  H     -450.330      88.613     216.719
  H     -450.211      90.210     217.451
  P     -446.914      92.953     217.129
  C     -444.414      92.603     217.575
  O     -445.390      93.000     216.632
  O     -447.276      93.939     218.189
  O     -447.769      93.175     215.793
  H     -448.630      93.589     216.013
  H     -443.454      92.513     217.066
  H     -444.679      91.639     218.019
  H     -444.330      93.361     218.359
  H     -452.492      87.381     213.656
  H     -450.823      87.883     213.778
  H     -451.896      88.686     212.657

 3  4  5  6  7  8  9  10  11  12  13  23  28  29  30  31  32 0
 6-311+G(2d,p)
 ****
 33  34 0
 6-311+G(2d,p)
 ****
 1  2  14  15  16  17  18  19  20  21  22  24  25  26  27 0
 3-21G
 ****
 35  36  37  38  39  40  41  42  43  44  45 0
 3-21G
 ****


