%nproc=1
%NoSave
%Mem=1900MB
#P OB98/GEN NMR

erre ene a

0 1
  C       52.444      89.417     381.059
  O       51.709      90.599     380.757
  P       50.195      90.635     380.259
  C       49.522      92.617     381.848
  O       49.600      92.094     380.528
  C       48.864      94.007     381.854
  O       49.807      94.970     381.293
  C       47.597      94.059     380.990
  O       46.531      94.793     381.586
  C       48.117      94.557     379.652
  O       47.108      95.108     378.820
  C       49.229      95.513     380.081
  N       51.602      98.751     376.926
  C       50.484      98.955     377.715
  N       49.905     100.174     377.641
  N       49.967      98.040     378.485
  C       50.589      96.844     378.404
  C       51.696      96.514     377.653
  C       52.296      97.550     376.839
  O       53.296      97.429     376.141
  N       52.054      95.204     377.839
  C       51.154      94.734     378.680
  N       50.250      95.698     379.060
  O       49.344      89.477     380.665
  O       50.322      90.596     378.649
  H       47.445      95.118     377.908
  H       49.530      90.118     378.323
  H       51.974      99.502     376.369
  H       51.121      93.720     379.057
  H       48.850      96.512     380.307
  H       48.535      93.696     379.117
  H       50.182     100.882     376.975
  H       47.174      93.057     380.860
  H       48.970     100.244     378.041
  H       48.659      94.298     382.890
  H       50.556      92.696     382.205
  H       48.995      91.930     382.510
  P       45.062      94.292     381.957
  C       44.971      95.548     384.193
  O       44.383      95.378     382.917
  O       45.281      93.046     382.932
  O       44.223      93.894     380.786
  H       44.900      92.238     382.527
  H       44.275      96.100     384.830
  H       45.894      96.122     384.096
  H       45.184      94.579     384.654
  H       53.433      89.682     381.369
  H       52.497      88.798     380.188
  H       51.954      88.884     381.846

 3  4  5  6  7  8  9  10  11  12  23  26  30  31 0
 6-311+G(2d,p)
 ****
 33  35  36  37  38 0
 6-311+G(2d,p)
 ****
 1  2  13  14  15  16  17  18  19  20  21  22  24  25 0
 3-21G
 ****
 27  28  29  32  34  39  40  41  42  43  44  45  46  47  48  49 0
 3-21G
 ****


