%nproc=1
%NoSave
%Mem=1900MB
#P OB98/GEN NMR

erre ene a

0 1
  C     -564.687      14.252      71.311
  O     -563.453      14.103      70.633
  H     -564.643      13.688      72.246
  H     -565.500      13.855      70.697
  H     -564.872      15.306      71.538
  P     -563.240      14.989      69.317
  C     -562.656      13.097      67.591
  O     -562.207      14.195      68.374
  C     -561.731      12.897      66.392
  O     -561.986      13.875      65.369
  C     -560.254      13.082      66.714
  O     -559.731      12.030      67.491
  C     -559.678      13.165      65.312
  O     -559.544      11.863      64.728
  C     -560.767      13.988      64.579
  N     -560.381      15.374      64.374
  C     -559.411      15.595      63.390
  O     -558.946      14.651      62.755
  N     -558.971      16.879      63.179
  C     -559.472      17.859      63.868
  N     -558.989      19.102      63.614
  C     -560.516      17.671      64.893
  C     -560.913      16.417      65.099
  O     -562.358      16.210      69.856
  O     -564.491      15.392      68.611
  H     -558.994      11.342      65.344
  H     -561.557      15.934      70.329
  H     -560.911      18.516      65.438
  H     -561.671      16.191      65.834
  H     -560.988      13.544      63.598
  H     -558.685      13.621      65.305
  H     -560.097      14.052      67.205
  H     -561.927      11.901      65.973
  H     -558.257      19.190      62.917
  H     -563.689      13.246      67.262
  H     -559.276      19.933      64.110
  H     -562.640      12.207      68.233
  P     -558.883      12.340      68.819
  C     -556.716      11.213      68.000
  O     -557.785      11.169      68.936
  O     -559.690      12.558      70.054
  O     -557.985      13.599      68.398
  H     -557.389      13.439      67.640
  H     -556.055      10.390      68.175
  H     -556.180      12.132      68.114
  H     -557.109      11.150      67.007

 6  7  8  9  10  11  12  13  14  15  16  26  30  31  32  33  35 0
 6-311+G(2d,p)
 ****
 37  38 0
 6-311+G(2d,p)
 ****
 1  2  3  4  5  17  18  19  20  21  22  23  24  25 0
 3-21G
 ****
 27  28  29  34  36  39  40  41  42  43  44  45  46 0
 3-21G
 ****


