%nproc=1
%NoSave
%Mem=1900MB
#P OB98/GEN NMR

erre ene a

0 1
  C     -700.345     645.616     175.319
  O     -700.959     646.151     174.155
  H     -700.306     646.403     176.072
  H     -699.332     645.282     175.097
  H     -700.938     644.781     175.697
  P     -701.083     645.154     172.894
  C     -703.593     644.973     173.521
  O     -702.395     644.279     173.204
  C     -704.628     644.802     172.393
  O     -704.840     643.414     172.119
  C     -705.991     645.408     172.699
  O     -706.002     646.788     172.421
  C     -706.860     644.627     171.725
  O     -706.763     645.224     170.411
  C     -706.221     643.233     171.725
  N     -709.914     639.697     172.148
  C     -709.673     640.616     171.194
  N     -708.699     641.566     171.184
  C     -707.926     641.486     172.273
  C     -708.074     640.602     173.335
  C     -709.106     639.668     173.252
  N     -709.364     638.716     174.226
  N     -707.100     640.820     174.291
  C     -706.350     641.778     173.792
  N     -706.842     642.245     172.590
  O     -699.855     644.409     172.532
  O     -701.614     646.182     171.762
  H     -707.186     646.109     170.469
  H     -702.278     646.792     172.145
  H     -710.341     640.604     170.348
  H     -705.440     642.175     174.267
  H     -706.202     642.793     170.711
  H     -707.923     644.635     171.993
  H     -706.307     645.185     173.729
  H     -704.185     645.249     171.481
  H     -703.389     646.034     173.673
  H     -710.239     638.219     174.170
  H     -708.849     638.781     175.083
  H     -703.976     644.565     174.459
  P     -706.612     647.856     173.456
  C     -704.441     649.207     173.134
  O     -705.335     648.594     174.066
  O     -707.558     647.270     174.436
  O     -707.281     648.972     172.531
  H     -707.907     649.511     173.043
  H     -703.632     649.664     173.664
  H     -704.966     649.952     172.573
  H     -704.056     648.464     172.467

 6  7  8  9  10  11  12  13  14  15  25  28  32  33  34  35 0
 6-311+G(2d,p)
 ****
 36  39  40 0
 6-311+G(2d,p)
 ****
 1  2  3  4  5  16  17  18  19  20  21  22  23  24 0
 3-21G
 ****
 26  27  29  30  31  37  38  41  42  43  44  45  46  47 0
 3-21G
 ****
 48 0
 3-21G
 ****


