%nproc=1
%NoSave
%Mem=1900MB
#P OB98/GEN NMR

erre ene a

0 1
  C       69.764      88.900     376.536
  O       69.389      87.558     376.293
  H       69.225      89.548     375.840
  H       70.838      89.021     376.371
  H       69.509      89.190     377.559
  P       69.890      86.475     377.360
  C       67.781      85.655     378.685
  O       68.888      86.543     378.617
  C       67.369      85.442     380.139
  O       68.339      84.633     380.833
  C       67.310      86.717     380.963
  O       66.199      87.524     380.638
  C       67.248      86.141     382.371
  O       65.909      85.794     382.744
  C       68.128      84.873     382.245
  N       69.375      85.009     382.975
  C       69.291      84.768     384.353
  O       68.216      84.446     384.860
  N       70.415      84.936     385.118
  C       71.518      85.335     384.565
  N       72.587      85.513     385.386
  C       71.648      85.601     383.118
  C       70.547      85.421     382.389
  O       71.230      87.141     377.925
  O       70.075      85.099     376.815
  H       65.978      85.297     383.585
  H       71.124      88.069     378.188
  H       72.593      85.920     382.704
  H       70.553      85.593     381.319
  H       67.596      83.997     382.635
  H       67.611      86.855     383.115
  H       68.250      87.276     380.864
  H       66.405      84.917     380.147
  H       72.440      85.372     386.379
  H       68.027      84.696     378.217
  H       73.471      85.895     385.082
  H       66.960      86.101     378.117
  P       66.274      89.121     380.734
  C       66.187      89.461     378.182
  O       66.952      89.634     379.369
  O       66.906      89.658     381.973
  O       64.749      89.567     380.534
  H       64.349      89.292     379.691
  H       66.737      89.837     377.345
  H       65.264      89.995     378.271
  H       65.984      88.420     378.037

 6  7  8  9  10  11  12  13  14  15  16  26  30  31  32  33  35 0
 6-311+G(2d,p)
 ****
 37  38 0
 6-311+G(2d,p)
 ****
 1  2  3  4  5  17  18  19  20  21  22  23  24  25 0
 3-21G
 ****
 27  28  29  34  36  39  40  41  42  43  44  45  46 0
 3-21G
 ****


