%nproc=1
%NoSave
%Mem=1900MB
#P OB98/GEN NMR

erre ene a

0 1
  C     -148.785    -177.647      -0.312
  O     -147.541    -177.947      -0.917
  H     -149.132    -178.528       0.236
  H     -149.522    -177.398      -1.080
  H     -148.679    -176.814       0.389
  P     -146.753    -176.716      -1.571
  C     -146.091    -174.309      -0.762
  O     -146.882    -175.473      -0.558
  C     -146.776    -173.095      -0.144
  O     -148.028    -172.823      -0.804
  C     -147.167    -173.271       1.312
  O     -146.056    -173.240       2.182
  C     -148.114    -172.092       1.497
  O     -147.405    -170.885       1.796
  C     -148.795    -172.000       0.109
  N     -150.191    -172.390       0.167
  C     -150.999    -171.880      -0.860
  O     -150.506    -171.172      -1.739
  N     -152.342    -172.157      -0.838
  C     -152.841    -172.854       0.134
  N     -154.185    -173.063       0.113
  C     -152.028    -173.408       1.236
  C     -150.722    -173.139       1.190
  O     -147.711    -176.299      -2.782
  O     -145.351    -177.014      -1.977
  H     -148.080    -170.179       1.864
  H     -148.643    -176.200      -2.529
  H     -152.489    -173.993       2.016
  H     -150.050    -173.505       1.958
  H     -148.743    -170.974      -0.276
  H     -148.813    -172.263       2.319
  H     -147.746    -174.195       1.439
  H     -146.117    -172.225      -0.278
  H     -154.712    -172.619      -0.631
  H     -145.918    -174.146      -1.831
  H     -154.692    -173.522       0.855
  H     -145.117    -174.480      -0.291
  P     -146.108    -173.931       3.625
  C     -146.098    -176.405       4.344
  O     -146.567    -175.455       3.392
  O     -146.904    -173.200       4.656
  O     -144.560    -174.103       4.000
  H     -144.046    -174.647       3.378
  H     -146.465    -177.377       4.088
  H     -146.449    -176.137       5.318
  H     -145.028    -176.415       4.341

 6  7  8  9  10  11  12  13  14  15  16  26  30  31  32  33  35 0
 6-311+G(2d,p)
 ****
 37  38 0
 6-311+G(2d,p)
 ****
 1  2  3  4  5  17  18  19  20  21  22  23  24  25 0
 3-21G
 ****
 27  28  29  34  36  39  40  41  42  43  44  45  46 0
 3-21G
 ****


