%nproc=1
%NoSave
%Mem=1900MB
#P OB98/GEN NMR

erre ene a

0 1
  C      146.216    -472.070     404.822
  O      145.327    -472.583     405.789
  H      146.670    -471.156     405.212
  H      145.657    -471.821     403.912
  H      147.007    -472.785     404.585
  P      144.866    -474.111     405.676
  C      142.773    -475.358     404.824
  O      143.531    -474.157     404.781
  C      141.331    -475.141     404.356
  O      140.653    -474.234     405.255
  C      141.261    -474.499     402.973
  O      141.361    -475.394     401.882
  C      139.882    -473.831     403.008
  O      138.853    -474.761     402.637
  C      139.740    -473.431     404.477
  N      137.894    -468.668     404.550
  C      137.260    -469.836     404.175
  N      135.998    -469.715     403.705
  N      137.830    -471.014     404.237
  C      139.123    -470.972     404.640
  C      139.861    -469.868     405.025
  C      139.201    -468.578     405.001
  O      139.722    -467.510     405.318
  N      141.141    -470.218     405.365
  C      141.207    -471.511     405.121
  N      139.996    -472.020     404.706
  O      144.306    -474.446     407.144
  O      145.939    -475.079     405.275
  H      138.966    -475.573     403.167
  H      144.385    -475.400     407.318
  H      137.397    -467.791     404.509
  H      142.089    -472.131     405.254
  H      138.727    -473.638     404.856
  H      139.820    -472.997     402.309
  H      135.563    -468.820     403.531
  H      142.017    -473.713     402.877
  H      135.607    -470.495     403.178
  H      140.787    -476.095     404.389
  H      142.782    -475.702     405.858
  H      143.255    -476.134     404.217
  P      142.452    -475.149     400.736
  C      142.410    -473.997     398.398
  O      141.773    -474.191     399.644
  O      142.520    -476.571     400.004
  O      143.788    -474.711     401.225
  H      143.272    -477.090     400.352
  H      141.823    -473.334     397.797
  H      142.510    -474.938     397.898
  H      143.379    -473.572     398.555

 6  7  8  9  10  11  12  13  14  15  26  29  33  34 0
 6-311+G(2d,p)
 ****
 36  38  39  40  41 0
 6-311+G(2d,p)
 ****
 1  2  3  4  5  16  17  18  19  20  21  22  23  24  25 0
 3-21G
 ****
 27  28  30  31  32  35  37  42  43  44  45  46  47 0
 3-21G
 ****
 48  49 0
 3-21G
 ****


