%nproc=1
%NoSave
%Mem=1900MB
#P OB98/GEN NMR

erre ene a

0 1
  C      -78.453    1056.788    -685.358
  O      -77.296    1055.979    -685.249
  H      -78.314    1057.557    -686.126
  H      -79.297    1056.147    -685.638
  H      -78.669    1057.256    -684.391
  P      -75.918    1056.745    -684.946
  C      -74.628    1056.010    -687.078
  O      -75.258    1057.084    -686.380
  C      -73.946    1056.543    -688.334
  O      -74.926    1057.068    -689.246
  C      -72.966    1057.691    -688.088
  O      -71.709    1057.228    -687.609
  C      -72.833    1058.265    -689.500
  O      -71.908    1057.455    -690.266
  C      -74.255    1058.083    -690.052
  N      -74.559    1063.012    -691.453
  C      -73.609    1062.080    -691.673
  N      -73.587    1060.785    -691.261
  C      -74.709    1060.491    -690.573
  C      -75.758    1061.346    -690.276
  C      -75.669    1062.666    -690.737
  N      -76.627    1063.631    -690.505
  N      -76.743    1060.696    -689.565
  C      -76.287    1059.467    -689.427
  N      -75.063    1059.297    -690.021
  O      -74.970    1055.592    -684.362
  O      -76.034    1057.905    -684.010
  H      -71.020    1057.672    -689.948
  H      -74.399    1055.984    -683.667
  H      -72.758    1062.397    -692.246
  H      -76.819    1058.664    -688.922
  H      -74.256    1057.717    -691.083
  H      -72.474    1059.284    -689.524
  H      -73.404    1058.454    -687.427
  H      -73.431    1055.698    -688.819
  H      -75.375    1055.277    -687.357
  H      -76.592    1064.484    -691.027
  H      -77.450    1063.364    -689.968
  H      -73.889    1055.542    -686.409
  P      -70.659    1058.337    -687.076
  C      -69.021    1057.684    -688.975
  O      -69.770    1058.718    -688.352
  O      -69.648    1057.473    -686.179
  O      -71.254    1059.467    -686.326
  H      -69.234    1058.055    -685.495
  H      -68.481    1058.086    -689.807
  H      -69.686    1056.919    -689.318
  H      -68.332    1057.268    -688.270

 6  7  8  9  10  11  12  13  14  15  25  28  32  33  34  35 0
 6-311+G(2d,p)
 ****
 36  39  40 0
 6-311+G(2d,p)
 ****
 1  2  3  4  5  16  17  18  19  20  21  22  23  24 0
 3-21G
 ****
 26  27  29  30  31  37  38  41  42  43  44  45  46  47  48 0
 3-21G
 ****


