%nproc=1
%NoSave
%Mem=1900MB
#P OB98/GEN NMR

erre ene a

0 1
  C      -56.018     -10.330     182.591
  O      -55.249     -10.078     181.431
  P      -53.748     -10.626     181.310
  C      -53.103      -8.167     181.771
  O      -52.836      -9.540     182.068
  C      -51.905      -7.292     182.139
  O      -51.569      -7.454     183.532
  C      -50.635      -7.617     181.364
  O      -50.699      -7.091     180.055
  C      -49.576      -6.977     182.258
  O      -49.463      -5.568     182.000
  C      -50.147      -7.232     183.667
  N      -49.486      -8.342     184.346
  C      -48.503      -7.989     185.280
  O      -48.220      -6.803     185.467
  N      -47.837      -8.997     185.942
  C      -48.108     -10.229     185.676
  N      -47.406     -11.178     186.355
  C      -49.115     -10.643     184.677
  C      -49.758      -9.658     184.053
  O      -53.307     -10.984     179.932
  O      -53.733     -11.867     182.327
  H      -48.730      -5.250     182.566
  H      -54.218     -12.646     181.954
  H      -49.300     -11.691     184.481
  H      -50.514      -9.869     183.307
  H      -50.034      -6.335     184.295
  H      -48.583      -7.412     182.097
  H      -50.483      -8.705     181.340
  H      -52.190      -6.245     181.978
  H      -46.706     -10.850     187.008
  H      -53.973      -7.852     182.351
  H      -47.512     -12.171     186.200
  H      -53.344      -8.071     180.709
  P      -50.028      -7.885     178.838
  C      -47.628      -7.195     179.438
  O      -48.530      -8.269     179.276
  O      -50.155      -7.237     177.498
  O      -50.784      -9.301     178.856
  H      -51.016      -9.548     177.941
  H      -46.775      -7.540     180.041
  H      -48.106      -6.356     179.945
  H      -47.264      -6.877     178.461
  H      -56.985      -9.886     182.481
  H      -55.527      -9.909     183.443
  H      -56.124     -11.386     182.726

 3  4  5  6  7  8  9  10  11  12  13  23  27  28  29  30  32 0
 6-311+G(2d,p)
 ****
 34  35 0
 6-311+G(2d,p)
 ****
 1  2  14  15  16  17  18  19  20  21  22  24  25  26 0
 3-21G
 ****
 31  33  36  37  38  39  40  41  42  43  44  45  46 0
 3-21G
 ****


