%nproc=1
%NoSave
%Mem=1900MB
#P OB98/GEN NMR

erre ene a

0 1
  C      212.491    -125.473     440.621
  O      212.287    -126.530     439.704
  H      211.655    -125.455     441.323
  H      212.524    -124.517     440.093
  H      213.418    -125.620     441.185
  P      213.426    -126.844     438.620
  C      212.485    -125.171     436.910
  O      212.787    -126.531     437.177
  C      212.284    -124.950     435.411
  O      213.558    -125.124     434.736
  C      211.281    -125.921     434.777
  O      210.531    -125.215     433.788
  C      212.166    -126.953     434.104
  O      211.522    -127.584     432.997
  C      213.380    -126.115     433.707
  N      215.881    -129.219     430.602
  C      214.730    -128.486     430.393
  N      214.136    -128.616     429.188
  N      214.200    -127.697     431.292
  C      214.905    -127.651     432.448
  C      216.056    -128.326     432.776
  C      216.624    -129.209     431.779
  O      217.635    -129.890     431.913
  N      216.454    -128.035     434.059
  C      215.542    -127.188     434.502
  N      214.577    -126.932     433.568
  O      214.067    -128.191     438.731
  O      214.486    -125.662     438.816
  H      210.698    -127.993     433.341
  H      215.249    -125.967     439.343
  H      216.239    -129.819     429.880
  H      215.534    -126.743     435.489
  H      213.235    -125.598     432.747
  H      212.447    -127.730     434.828
  H      214.495    -129.194     428.442
  H      210.603    -126.372     435.506
  H      213.301    -128.072     429.003
  H      211.979    -123.910     435.248
  H      213.322    -124.553     437.261
  H      211.581    -124.881     437.456
  P      209.072    -124.672     434.167
  C      207.726    -126.449     432.876
  O      208.063    -125.071     432.981
  O      209.007    -123.242     434.608
  O      208.624    -125.661     435.352
  H      208.025    -125.179     435.953
  H      207.053    -126.590     432.056
  H      207.257    -126.771     433.782
  H      208.615    -127.022     432.711

 6  7  8  9  10  11  12  13  14  15  26  29  33  34 0
 6-311+G(2d,p)
 ****
 36  38  39  40  41 0
 6-311+G(2d,p)
 ****
 1  2  3  4  5  16  17  18  19  20  21  22  23  24  25 0
 3-21G
 ****
 27  28  30  31  32  35  37  42  43  44  45  46  47 0
 3-21G
 ****
 48  49 0
 3-21G
 ****


