%nproc=1
%NoSave
%Mem=1900MB
#P OB98/GEN NMR

erre ene a

0 1
  C       31.760    -554.013     -66.803
  O       31.198    -553.244     -65.761
  H       31.300    -555.003     -66.833
  H       31.570    -553.509     -67.754
  H       32.842    -554.109     -66.663
  P       31.372    -553.808     -64.268
  C       30.936    -556.120     -63.166
  O       30.677    -555.255     -64.264
  C       30.493    -557.537     -63.516
  O       31.136    -557.977     -64.733
  C       30.843    -558.583     -62.465
  O       29.918    -558.598     -61.392
  C       30.749    -559.853     -63.291
  O       29.367    -560.209     -63.479
  C       31.369    -559.405     -64.624
  N       34.993    -562.102     -67.026
  C       33.650    -562.087     -67.155
  N       32.753    -561.345     -66.471
  C       33.373    -560.550     -65.580
  C       34.734    -560.464     -65.333
  C       35.567    -561.285     -66.114
  N       36.938    -561.316     -65.976
  N       34.989    -559.564     -64.315
  C       33.804    -559.093     -63.981
  N       32.796    -559.667     -64.709
  O       30.359    -552.916     -63.409
  O       32.760    -553.779     -63.722
  H       29.359    -561.060     -63.957
  H       30.608    -552.942     -62.465
  H       33.242    -562.763     -67.896
  H       33.623    -558.344     -63.223
  H       30.898    -559.886     -65.488
  H       31.236    -560.706     -62.824
  H       31.874    -558.464     -62.104
  H       29.410    -557.519     -63.702
  H       30.378    -555.773     -62.294
  H       37.422    -562.064     -66.447
  H       37.356    -560.823     -65.197
  H       32.006    -556.100     -62.940
  P       30.139    -559.694     -60.238
  C       30.646    -562.245     -60.244
  O       30.214    -561.107     -60.985
  O       28.722    -559.733     -59.499
  O       31.264    -559.392     -59.303
  H       28.824    -560.022     -58.568
  H       30.642    -563.106     -60.879
  H       29.983    -562.406     -59.420
  H       31.637    -562.077     -59.877

 6  7  8  9  10  11  12  13  14  15  25  28  32  33  34  35 0
 6-311+G(2d,p)
 ****
 36  39  40 0
 6-311+G(2d,p)
 ****
 1  2  3  4  5  16  17  18  19  20  21  22  23  24 0
 3-21G
 ****
 26  27  29  30  31  37  38  41  42  43  44  45  46  47 0
 3-21G
 ****
 48 0
 3-21G
 ****


