%nproc=1
%NoSave
%Mem=1900MB
#P OB98/GEN NMR

erre ene a

0 1
  C       12.043      34.189     164.744
  O       11.888      35.582     164.927
  H       11.151      33.684     165.121
  H       12.910      33.840     165.310
  H       12.165      33.945     163.685
  P       12.922      36.533     164.152
  C       15.196      37.636     164.741
  O       14.194      36.705     165.117
  C       15.581      38.509     165.931
  O       14.492      39.388     166.283
  C       15.929      37.730     167.195
  O       17.278      37.284     167.179
  C       15.722      38.802     168.252
  O       16.847      39.707     168.254
  C       14.472      39.524     167.733
  N       11.760      38.463     171.884
  C       13.051      38.940     171.768
  N       13.716      39.158     172.922
  N       13.640      39.179     170.624
  C       12.863      38.891     169.553
  C       11.574      38.408     169.541
  C       10.930      38.165     170.811
  O        9.784      37.752     170.968
  N       11.111      38.240     168.263
  C       12.126      38.599     167.503
  N       13.214      39.000     168.238
  O       12.201      37.963     164.214
  O       13.221      36.137     162.746
  H       16.812      40.206     167.418
  H       11.791      38.147     163.348
  H       11.358      38.287     172.788
  H       12.123      38.595     166.422
  H       14.484      40.595     167.962
  H       15.646      38.391     169.260
  H       13.331      38.975     173.835
  H       15.230      36.903     167.368
  H       14.663      39.512     172.860
  H       16.423      39.142     165.623
  H       14.811      38.268     163.934
  H       16.073      37.089     164.381
  P       17.662      35.995     168.053
  C       18.442      35.625     170.497
  O       17.778      36.481     169.579
  O       19.181      35.724     167.629
  O       16.810      34.795     167.822
  H       19.240      34.895     167.116
  H       18.443      36.075     171.468
  H       19.451      35.470     170.175
  H       17.933      34.685     170.540

 6  7  8  9  10  11  12  13  14  15  26  29  33  34 0
 6-311+G(2d,p)
 ****
 36  38  39  40  41 0
 6-311+G(2d,p)
 ****
 1  2  3  4  5  16  17  18  19  20  21  22  23  24  25 0
 3-21G
 ****
 27  28  30  31  32  35  37  42  43  44  45  46  47 0
 3-21G
 ****
 48  49 0
 3-21G
 ****


