%nproc=1
%NoSave
%Mem=1900MB
#P OB98/GEN NMR

erre ene a

0 1
  C     -626.485     234.369    -943.285
  O     -627.054     234.879    -944.466
  H     -625.476     233.985    -943.509
  H     -627.074     233.550    -942.875
  H     -626.370     235.166    -942.533
  P     -628.544     235.458    -944.344
  C     -629.480     233.837    -946.150
  O     -629.498     234.241    -944.759
  C     -630.361     232.607    -946.332
  O     -629.798     231.468    -945.650
  C     -631.781     232.753    -945.827
  O     -632.604     233.423    -946.799
  C     -632.195     231.297    -945.655
  O     -632.598     230.755    -946.953
  C     -630.883     230.632    -945.182
  N     -628.156     228.431    -941.422
  C     -628.105     228.285    -942.790
  N     -628.894     228.866    -943.714
  C     -629.823     229.659    -943.138
  C     -629.985     229.919    -941.771
  C     -629.114     229.246    -940.904
  N     -629.167     229.370    -939.533
  N     -631.031     230.774    -941.570
  C     -631.438     231.106    -942.754
  N     -630.761     230.434    -943.756
  O     -628.798     236.761    -945.036
  O     -628.723     235.510    -942.749
  H     -631.835     230.899    -947.558
  H     -628.338     234.706    -942.342
  H     -627.336     227.632    -943.159
  H     -632.212     231.842    -942.991
  H     -630.742     229.637    -945.652
  H     -633.054     231.152    -944.997
  H     -631.827     233.238    -944.842
  H     -630.370     232.369    -947.435
  H     -628.453     233.606    -946.465
  H     -628.628     228.746    -938.992
  H     -629.953     229.884    -939.141
  H     -629.858     234.672    -946.732
  P     -634.076     233.931    -946.420
  C     -635.240     232.786    -948.429
  O     -635.076     232.827    -946.997
  O     -634.372     235.341    -946.850
  O     -634.177     233.738    -944.826
  H     -634.915     234.263    -944.467
  H     -635.930     232.010    -948.687
  H     -634.295     232.591    -948.891
  H     -635.617     233.727    -948.772

 6  7  8  9  10  11  12  13  14  15  25  28  32  33  34  35 0
 6-311+G(2d,p)
 ****
 36  39  40 0
 6-311+G(2d,p)
 ****
 1  2  3  4  5  16  17  18  19  20  21  22  23  24 0
 3-21G
 ****
 26  27  29  30  31  37  38  41  42  43  44  45  46  47 0
 3-21G
 ****
 48 0
 3-21G
 ****


