%nproc=1
%NoSave
%Mem=1900MB
#P OB98/GEN NMR

erre ene a

0 1
  C      212.823     531.803     249.911
  O      213.610     531.663     248.728
  P      212.935     531.942     247.300
  C      212.448     530.634     245.129
  O      212.811     530.551     246.502
  C      212.352     529.231     244.503
  O      213.671     528.613     244.473
  C      211.412     528.292     245.270
  O      210.444     527.655     244.429
  C      212.361     527.366     246.010
  O      211.765     526.119     246.358
  C      213.578     527.318     245.083
  N      214.800     526.957     245.807
  C      215.504     525.854     245.340
  O      215.106     525.143     244.413
  N      216.663     525.547     246.007
  C      217.129     526.177     247.120
  O      218.147     525.834     247.714
  C      216.319     527.299     247.614
  C      215.208     527.631     246.940
  O      213.520     533.074     246.514
  O      211.405     532.254     247.680
  H      212.419     525.606     246.880
  H      211.090     532.968     247.095
  H      217.187     524.753     245.660
  H      216.640     527.804     248.506
  H      214.577     528.441     247.288
  H      213.437     526.571     244.290
  H      212.652     527.853     246.951
  H      210.806     528.844     246.000
  H      212.006     529.357     243.471
  H      213.200     531.209     244.588
  H      211.506     531.187     245.031
  P      208.940     528.162     244.224
  C      206.785     528.248     245.655
  O      208.077     527.698     245.487
  O      208.334     527.864     242.893
  O      209.068     529.754     244.423
  H      208.507     530.206     243.773
  H      206.489     528.131     246.704
  H      206.072     527.705     245.026
  H      206.767     529.316     245.395
  H      213.424     531.581     250.768
  H      211.996     531.126     249.871
  H      212.459     532.807     249.981

 3  4  5  6  7  8  9  10  11  12  13  23  28  29  30  31  32 0
 6-311+G(2d,p)
 ****
 33  34 0
 6-311+G(2d,p)
 ****
 1  2  14  15  16  17  18  19  20  21  22  24  25  26  27 0
 3-21G
 ****
 35  36  37  38  39  40  41  42  43  44  45 0
 3-21G
 ****


