%nproc=1
%NoSave
%Mem=1900MB
#P OB98/GEN NMR

erre ene a

0 1
  C     -249.495     464.695     243.030
  O     -248.776     464.124     241.957
  H     -250.398     464.100     243.199
  H     -249.789     465.719     242.796
  H     -248.891     464.679     243.943
  P     -247.461     464.880     241.433
  C     -246.484     462.487     241.429
  O     -246.510     463.758     240.798
  C     -245.062     461.909     241.436
  O     -244.661     461.627     240.061
  C     -244.008     462.859     242.030
  O     -242.983     462.050     242.614
  C     -243.497     463.556     240.783
  O     -242.296     464.244     241.034
  C     -243.453     462.378     239.805
  N     -243.362     462.805     238.420
  C     -242.072     462.857     237.874
  O     -241.096     462.571     238.564
  N     -241.925     463.271     236.575
  C     -242.962     463.661     235.899
  N     -242.742     464.070     234.621
  C     -244.330     463.672     236.457
  C     -244.455     463.233     237.710
  O     -246.796     465.782     242.417
  O     -247.971     465.692     240.150
  H     -242.009     464.748     240.240
  H     -248.051     466.638     240.368
  H     -245.157     464.022     235.857
  H     -245.422     463.205     238.204
  H     -242.604     461.717     240.027
  H     -244.219     464.307     240.438
  H     -244.424     463.544     242.775
  H     -245.069     460.950     241.967
  H     -241.791     464.054     234.284
  H     -247.151     461.825     240.866
  H     -243.469     464.411     234.010
  H     -246.851     462.567     242.459
  P     -242.694     462.012     244.192
  C     -242.107     459.594     244.881
  O     -241.607     460.874     244.507
  O     -243.928     461.922     245.032
  O     -241.903     463.371     244.501
  H     -242.116     463.662     245.408
  H     -241.288     458.930     245.063
  H     -242.714     459.204     244.091
  H     -242.695     459.687     245.770

 6  7  8  9  10  11  12  13  14  15  16  26  30  31  32  33  35 0
 6-311+G(2d,p)
 ****
 37  38 0
 6-311+G(2d,p)
 ****
 1  2  3  4  5  17  18  19  20  21  22  23  24  25 0
 3-21G
 ****
 27  28  29  34  36  39  40  41  42  43  44  45  46 0
 3-21G
 ****


