%nproc=1
%NoSave
%Mem=1900MB
#P OB98/GEN NMR

erre ene a

0 1
  C       96.325     154.053      -0.068
  O       97.171     154.138      -1.198
  H       95.639     154.903      -0.080
  H       96.922     154.094       0.848
  H       95.744     153.127      -0.094
  P       98.141     152.886      -1.469
  C      100.269     154.257      -2.169
  O       99.212     153.395      -2.549
  C      100.942     154.861      -3.403
  O       99.993     155.733      -4.071
  C      102.189     155.687      -3.081
  O      103.135     155.509      -4.137
  C      101.677     157.118      -3.102
  O      102.718     158.058      -3.345
  C      100.602     157.034      -4.199
  N       99.614     158.104      -4.094
  C      100.049     159.397      -4.407
  O      101.218     159.593      -4.739
  N       99.166     160.439      -4.297
  C       97.969     160.225      -3.848
  N       97.149     161.305      -3.739
  C       97.480     158.887      -3.464
  C       98.340     157.882      -3.618
  O       97.188     151.911      -2.308
  O       98.718     152.275      -0.237
  H      102.320     158.954      -3.417
  H       96.679     152.366      -3.000
  H       96.476     158.759      -3.084
  H       98.064     156.866      -3.368
  H      101.064     157.090      -5.195
  H      101.216     157.367      -2.140
  H      102.643     155.414      -2.126
  H      101.176     154.052      -4.103
  H       97.533     162.207      -3.993
  H      101.013     153.713      -1.581
  H       96.218     161.265      -3.351
  H       99.850     155.049      -1.538
  P      104.692     155.372      -3.787
  C      105.405     156.160      -6.145
  O      105.523     155.158      -5.141
  O      105.027     154.430      -2.680
  O      105.092     156.875      -3.376
  H      105.691     156.823      -2.606
  H      106.007     155.893      -6.988
  H      105.737     157.099      -5.753
  H      104.382     156.242      -6.449

 6  7  8  9  10  11  12  13  14  15  16  26  30  31  32  33  35 0
 6-311+G(2d,p)
 ****
 37  38 0
 6-311+G(2d,p)
 ****
 1  2  3  4  5  17  18  19  20  21  22  23  24  25 0
 3-21G
 ****
 27  28  29  34  36  39  40  41  42  43  44  45  46 0
 3-21G
 ****


