%nproc=1
%NoSave
%Mem=1900MB
#P OB98/GEN NMR

erre ene a

0 1
  C       60.273     -43.155    -430.421
  O       59.139     -43.935    -430.107
  H       59.940     -42.180    -430.790
  H       60.862     -43.644    -431.200
  H       60.888     -43.002    -429.528
  P       59.406     -45.413    -429.547
  C       60.587     -47.539    -430.462
  O       60.119     -46.221    -430.740
  C       61.189     -48.163    -431.722
  O       60.163     -48.248    -432.749
  C       62.368     -47.370    -432.307
  O       63.344     -48.295    -432.809
  C       61.738     -46.636    -433.479
  O       62.703     -46.270    -434.462
  C       60.720     -47.671    -433.947
  N       59.197     -47.119    -438.714
  C       60.259     -47.823    -438.191
  N       61.052     -48.477    -439.069
  N       60.537     -47.875    -436.916
  C       59.650     -47.195    -436.146
  C       58.562     -46.450    -436.545
  C       58.285     -46.383    -437.963
  O       57.366     -45.756    -438.485
  N       57.935     -45.884    -435.459
  C       58.641     -46.286    -434.413
  N       59.686     -47.083    -434.784
  O       57.943     -46.064    -429.487
  O       60.110     -45.486    -428.230
  H       63.139     -47.093    -434.776
  H       57.885     -46.726    -428.769
  H       59.033     -47.101    -439.708
  H       58.434     -46.023    -433.384
  H       61.180     -48.477    -434.532
  H       61.238     -45.726    -433.126
  H       60.881     -48.506    -440.064
  H       62.838     -46.693    -431.592
  H       61.834     -49.011    -438.709
  H       61.484     -49.195    -431.489
  H       59.742     -48.147    -430.120
  H       61.342     -47.491    -429.670
  P       64.886     -47.977    -432.514
  C       66.689     -46.340    -433.412
  O       65.420     -46.942    -433.622
  O       65.620     -49.355    -432.903
  O       65.170     -47.605    -431.098
  H       65.925     -49.808    -432.102
  H       66.910     -45.680    -434.225
  H       67.440     -47.100    -433.356
  H       66.674     -45.786    -432.497

 6  7  8  9  10  11  12  13  14  15  26  29  33  34 0
 6-311+G(2d,p)
 ****
 36  38  39  40  41 0
 6-311+G(2d,p)
 ****
 1  2  3  4  5  16  17  18  19  20  21  22  23  24  25 0
 3-21G
 ****
 27  28  30  31  32  35  37  42  43  44  45  46  47 0
 3-21G
 ****
 48  49 0
 3-21G
 ****


