%nproc=1
%NoSave
%Mem=1900MB
#P OB98/GEN NMR

erre ene a

0 1
  C     -370.293     823.395    -353.379
  O     -371.610     823.787    -353.670
  P     -371.955     824.725    -354.928
  C     -372.483     822.671    -356.391
  O     -371.645     823.814    -356.212
  C     -372.993     822.645    -357.841
  O     -371.865     822.440    -358.717
  C     -373.962     821.492    -358.157
  O     -375.315     821.754    -357.827
  C     -373.811     821.409    -359.676
  O     -374.578     822.472    -360.304
  C     -372.311     821.669    -359.871
  N     -369.088     818.987    -362.786
  C     -369.661     820.199    -362.957
  N     -370.517     820.843    -362.136
  C     -370.743     820.116    -361.034
  C     -370.239     818.853    -360.718
  C     -369.376     818.292    -361.675
  N     -368.772     817.047    -361.493
  N     -370.726     818.431    -359.512
  C     -371.491     819.416    -359.082
  N     -371.547     820.442    -359.973
  O     -371.280     826.052    -354.900
  O     -373.547     824.832    -354.930
  H     -375.507     822.349    -360.034
  H     -373.836     825.583    -355.476
  H     -369.381     820.741    -363.872
  H     -372.048     819.382    -358.156
  H     -372.100     822.289    -360.769
  H     -374.176     820.485    -360.111
  H     -373.628     820.538    -357.734
  H     -373.451     823.603    -358.075
  H     -373.335     822.774    -355.723
  H     -368.063     816.792    -362.140
  H     -368.847     816.620    -360.584
  H     -371.937     821.765    -356.144
  P     -376.151     820.594    -357.092
  C     -375.792     821.725    -354.760
  O     -375.592     820.588    -355.587
  O     -376.104     819.252    -357.774
  O     -377.610     821.199    -356.972
  H     -377.687     821.971    -356.372
  H     -375.497     821.494    -353.739
  H     -376.838     822.045    -354.763
  H     -375.169     822.564    -355.102
  H     -370.290     822.777    -352.505
  H     -369.693     824.263    -353.204
  H     -369.893     822.846    -354.206

 3  4  5  6  7  8  9  10  11  12  22  25  29  30  31  32 0
 6-311+G(2d,p)
 ****
 33  36  37 0
 6-311+G(2d,p)
 ****
 1  2  13  14  15  16  17  18  19  20  21  23  24  26 0
 3-21G
 ****
 27  28  34  35  38  39  40  41  42  43  44  45  46  47  48 0
 3-21G
 ****


