%nproc=1
%NoSave
%Mem=1900MB
#P OB98/GEN NMR

erre ene a

0 1
  C      532.750    -960.250     321.505
  O      533.130    -958.957     321.067
  H      533.146    -960.971     320.796
  H      531.667    -960.335     321.533
  H      533.182    -960.454     322.481
  P      532.629    -957.680     321.912
  C      530.413    -957.676     320.589
  O      531.033    -957.703     321.867
  C      529.223    -956.724     320.584
  O      529.745    -955.361     320.732
  C      528.401    -956.765     319.270
  O      527.012    -956.969     319.494
  C      528.851    -955.498     318.532
  O      527.888    -955.009     317.614
  C      529.201    -954.544     319.671
  N      530.149    -953.511     319.300
  C      529.674    -952.446     318.529
  O      528.508    -952.298     318.167
  N      530.607    -951.492     318.188
  C      531.933    -951.505     318.518
  O      532.715    -950.630     318.166
  C      532.382    -952.665     319.297
  C      531.492    -953.589     319.645
  O      533.246    -956.379     321.526
  O      532.960    -958.071     323.424
  H      528.272    -954.221     317.199
  H      533.742    -957.564     323.727
  H      530.260    -950.719     317.647
  H      533.429    -952.724     319.561
  H      531.805    -954.467     320.229
  H      528.320    -954.053     320.065
  H      529.755    -955.734     317.957
  H      528.697    -957.648     318.680
  H      528.589    -956.926     321.448
  H      530.073    -958.704     320.354
  H      531.140    -957.371     319.825
  P      526.204    -958.298     319.083
  C      524.902    -957.392     316.981
  O      525.916    -958.247     317.509
  O      525.058    -958.641     319.969
  O      527.312    -959.473     319.209
  H      526.817    -960.259     319.484
  H      524.863    -957.500     315.917
  H      525.128    -956.376     317.229
  H      523.955    -957.660     317.402

 6  7  8  9  10  11  12  13  14  15  16  26  31  32  33  34  35 0
 6-311+G(2d,p)
 ****
 36  37 0
 6-311+G(2d,p)
 ****
 1  2  3  4  5  17  18  19  20  21  22  23  24  25 0
 3-21G
 ****
 27  28  29  30  38  39  40  41  42  43  44  45 0
 3-21G
 ****


