%nproc=1
%NoSave
%Mem=1900MB
#P OB98/GEN NMR

erre ene a

0 1
  C      -25.201     221.606     197.232
  O      -26.235     221.675     198.197
  H      -24.315     222.115     197.627
  H      -25.498     222.104     196.304
  H      -24.945     220.564     197.025
  P      -27.689     221.135     197.789
  C      -29.675     222.100     196.440
  O      -28.399     222.348     197.021
  C      -30.131     223.315     195.638
  O      -30.485     224.395     196.526
  C      -29.049     223.870     194.721
  O      -28.896     223.057     193.573
  C      -29.577     225.268     194.468
  O      -30.607     225.266     193.470
  C      -30.155     225.636     195.855
  N      -29.235     226.436     196.657
  C      -28.962     227.722     196.179
  O      -29.490     228.127     195.144
  N      -28.080     228.506     196.880
  C      -27.532     228.057     197.966
  N      -26.666     228.885     198.612
  C      -27.801     226.713     198.513
  C      -28.651     225.961     197.813
  O      -28.514     220.529     198.882
  O      -27.386     220.089     196.614
  H      -30.147     225.147     192.615
  H      -27.241     219.197     196.982
  H      -27.326     226.382     199.422
  H      -28.906     224.961     198.144
  H      -31.092     226.195     195.748
  H      -28.787     225.938     194.130
  H      -28.102     223.958     195.264
  H      -31.029     223.039     195.070
  H      -26.502     229.796     198.197
  H      -30.373     221.905     197.261
  H      -26.251     228.679     199.508
  H      -29.642     221.213     195.796
  P      -27.435     222.623     193.072
  C      -25.389     223.864     192.108
  O      -26.729     223.980     192.583
  O      -27.408     221.496     192.092
  O      -26.665     222.295     194.438
  H      -26.966     221.434     194.826
  H      -25.030     224.828     191.813
  H      -25.365     223.202     191.268
  H      -24.767     223.475     192.887

 6  7  8  9  10  11  12  13  14  15  16  26  30  31  32  33  35 0
 6-311+G(2d,p)
 ****
 37  38 0
 6-311+G(2d,p)
 ****
 1  2  3  4  5  17  18  19  20  21  22  23  24  25 0
 3-21G
 ****
 27  28  29  34  36  39  40  41  42  43  44  45  46 0
 3-21G
 ****


