%nproc=1
%NoSave
%Mem=1900MB
#P OB98/GEN NMR

erre ene a

0 1
  C     -103.168     -82.879     320.480
  O     -102.848     -82.947     321.853
  H     -102.982     -83.858     320.029
  H     -102.529     -82.140     319.990
  H     -104.218     -82.618     320.327
  P     -103.440     -81.833     322.837
  C     -101.603     -80.022     322.718
  O     -102.922     -80.395     322.338
  C     -101.508     -78.530     323.040
  O     -102.060     -77.761     321.948
  C     -102.302     -78.149     324.293
  O     -101.586     -78.293     325.509
  C     -102.636     -76.684     324.022
  O     -101.590     -75.817     324.496
  C     -102.736     -76.618     322.494
  N     -107.249     -74.216     322.585
  C     -106.141     -74.015     323.392
  N     -106.281     -73.087     324.364
  N     -105.028     -74.683     323.260
  C     -105.074     -75.646     322.313
  C     -106.120     -75.951     321.466
  C     -107.329     -75.160     321.573
  O     -108.330     -75.286     320.870
  N     -105.823     -77.022     320.660
  C     -104.636     -77.418     321.082
  N     -104.110     -76.564     322.026
  O     -102.602     -82.049     324.191
  O     -104.912     -81.928     323.109
  H     -101.721     -74.938     324.088
  H     -103.156     -81.816     324.956
  H     -108.070     -73.652     322.717
  H     -104.095     -78.279     320.705
  H     -102.228     -75.729     322.098
  H     -103.549     -76.388     324.543
  H     -107.141     -72.606     324.563
  H     -103.242     -78.708     324.341
  H     -105.563     -73.041     325.094
  H     -100.451     -78.244     323.133
  H     -100.956     -80.264     321.872
  H     -101.270     -80.620     323.570
  P     -102.338     -78.697     326.860
  C     -102.520     -76.492     328.278
  O     -103.126     -77.422     327.401
  O     -101.140     -78.860     327.905
  O     -103.183     -79.924     326.784
  H     -100.897     -79.801     328.012
  H     -103.220     -75.718     328.516
  H     -101.661     -76.063     327.805
  H     -102.221     -76.991     329.176

 6  7  8  9  10  11  12  13  14  15  26  29  33  34 0
 6-311+G(2d,p)
 ****
 36  38  39  40  41 0
 6-311+G(2d,p)
 ****
 1  2  3  4  5  16  17  18  19  20  21  22  23  24  25 0
 3-21G
 ****
 27  28  30  31  32  35  37  42  43  44  45  46  47 0
 3-21G
 ****
 48  49 0
 3-21G
 ****


