%nproc=1
%NoSave
%Mem=1900MB
#P OB98/GEN NMR

erre ene a

0 1
  C      854.413     -44.316    -180.636
  O      853.258     -43.502    -180.577
  P      852.352     -43.435    -181.904
  C      849.818     -42.987    -182.360
  O      850.840     -43.205    -181.410
  C      848.494     -42.701    -181.655
  O      847.981     -43.909    -181.042
  C      848.602     -41.666    -180.519
  O      848.567     -40.358    -181.046
  C      847.389     -42.021    -179.665
  O      846.188     -41.440    -180.221
  C      847.356     -43.554    -179.772
  N      846.731     -45.823    -175.296
  C      845.840     -45.090    -176.046
  N      844.581     -44.970    -175.559
  N      846.148     -44.511    -177.184
  C      847.435     -44.704    -177.546
  C      848.423     -45.397    -176.873
  C      848.051     -46.066    -175.656
  O      848.779     -46.810    -174.991
  N      849.620     -45.342    -177.535
  C      849.353     -44.641    -178.620
  N      848.045     -44.240    -178.689
  O      852.364     -44.944    -182.434
  O      852.811     -42.456    -182.943
  H      846.268     -40.458    -180.198
  H      853.021     -45.058    -183.148
  H      846.432     -46.267    -174.434
  H      850.070     -44.413    -179.398
  H      846.323     -43.941    -179.793
  H      847.472     -41.641    -178.650
  H      844.272     -45.369    -174.680
  H      849.518     -41.839    -179.942
  H      843.913     -44.436    -176.092
  H      847.764     -42.366    -182.400
  H      849.705     -43.887    -182.987
  H      850.094     -42.142    -183.012
  P      848.914     -39.148    -180.033
  C      849.896     -36.749    -180.267
  O      849.545     -37.954    -180.906
  O      850.163     -39.714    -179.201
  O      847.787     -38.756    -179.147
  H      850.096     -39.399    -178.277
  H      850.732     -36.298    -180.795
  H      850.180     -36.917    -179.224
  H      849.042     -36.066    -180.298
  H      854.926     -44.276    -179.698
  H      855.060     -43.962    -181.411
  H      854.127     -45.326    -180.844

 3  4  5  6  7  8  9  10  11  12  23  26  30  31 0
 6-311+G(2d,p)
 ****
 33  35  36  37  38 0
 6-311+G(2d,p)
 ****
 1  2  13  14  15  16  17  18  19  20  21  22  24  25 0
 3-21G
 ****
 27  28  29  32  34  39  40  41  42  43  44  45  46  47  48  49 0
 3-21G
 ****


