%nproc=1
%NoSave
%Mem=1900MB
#P OB98/GEN NMR

erre ene a

0 1
  C      -71.068    -483.224      14.191
  O      -72.222    -482.765      13.512
  H      -71.366    -483.996      14.904
  H      -70.601    -482.397      14.734
  H      -70.357    -483.652      13.479
  P      -71.992    -481.633      12.399
  C      -74.159    -480.191      12.580
  O      -73.454    -481.212      11.889
  C      -75.400    -479.768      11.785
  O      -74.977    -479.327      10.460
  C      -76.423    -480.896      11.575
  O      -77.726    -480.300      11.462
  C      -75.997    -481.446      10.223
  O      -76.995    -482.281       9.679
  C      -75.696    -480.135       9.499
  N      -75.834    -481.363       4.540
  C      -76.811    -481.225       5.458
  N      -76.700    -480.884       6.756
  C      -75.413    -480.653       7.079
  C      -74.311    -480.744       6.248
  C      -74.555    -481.127       4.917
  N      -73.559    -481.277       3.981
  N      -73.153    -480.440       6.943
  C      -73.555    -480.165       8.168
  N      -74.911    -480.289       8.298
  O      -71.377    -482.445      11.168
  O      -71.121    -480.494      12.815
  H      -76.748    -482.579       8.778
  H      -70.402    -482.390      11.187
  H      -77.823    -481.416       5.100
  H      -72.912    -479.884       8.992
  H      -76.614    -479.597       9.233
  H      -75.094    -482.058      10.316
  H      -76.426    -481.637      12.381
  H      -75.858    -478.899      12.274
  H      -73.489    -479.333      12.711
  H      -74.465    -480.562      13.563
  H      -73.815    -481.565       3.052
  H      -72.599    -481.119       4.254
  P      -78.364    -479.571      12.746
  C      -80.731    -480.620      12.353
  O      -79.948    -479.443      12.530
  O      -77.882    -478.052      12.541
  O      -77.923    -480.091      14.074
  H      -77.810    -477.615      13.412
  H      -81.758    -480.349      12.224
  H      -80.633    -481.246      13.215
  H      -80.390    -481.149      11.487

 6  7  8  9  10  11  12  13  14  15  25  28  32  33  34  35 0
 6-311+G(2d,p)
 ****
 36  37  40 0
 6-311+G(2d,p)
 ****
 1  2  3  4  5  16  17  18  19  20  21  22  23  24 0
 3-21G
 ****
 26  27  29  30  31  38  39 41  42  43  44  45  46  47  48 0
 3-21G
 ****


