%nproc=1
%NoSave
%Mem=1900MB
#P OB98/GEN NMR

erre ene a

0 1
  C     -153.342     193.955     319.549
  O     -152.062     193.368     319.245
  P     -150.897     193.595     320.325
  C     -151.623     191.843     322.108
  O     -150.673     192.213     321.112
  C     -151.740     190.322     322.179
  O     -152.400     189.774     321.012
  C     -150.388     189.606     322.243
  O     -149.811     189.728     323.538
  C     -150.798     188.189     321.859
  O     -151.374     187.508     322.986
  C     -151.878     188.442     320.792
  N     -152.213     185.783     316.431
  C     -152.839     185.651     317.621
  N     -152.692     186.400     318.739
  C     -151.798     187.382     318.536
  C     -151.083     187.649     317.375
  C     -151.320     186.793     316.284
  N     -150.666     186.921     315.069
  N     -150.257     188.742     317.556
  C     -150.456     189.117     318.806
  N     -151.386     188.333     319.433
  O     -151.581     194.546     321.417
  O     -149.660     194.212     319.756
  H     -152.112     188.065     323.320
  H     -151.210     195.445     321.358
  H     -153.547     184.829     317.682
  H     -149.952     189.946     319.290
  H     -152.718     187.748     320.895
  H     -149.957     187.583     321.509
  H     -149.708     190.024     321.490
  H     -152.341     190.064     323.068
  H     -152.595     192.278     321.883
  H     -150.828     186.221     314.371
  H     -149.937     187.618     314.986
  H     -151.302     192.261     323.066
  P     -148.267     190.156     323.618
  C     -148.296     192.633     322.942
  O     -148.334     191.720     324.018
  O     -147.858     190.205     322.080
  O     -147.419     189.299     324.502
  H     -148.524     190.661     321.539
  H     -148.383     193.654     323.343
  H     -149.132     192.453     322.256
  H     -147.343     192.546     322.402
  H     -154.031     193.736     318.760
  H     -153.234     195.015     319.645
  H     -153.711     193.549     320.468

 3  4  5  6  7  8  9  10  11  12  22  25  29  30  31  32 0
 6-311+G(2d,p)
 ****
 33  36  37 0
 6-311+G(2d,p)
 ****
 1  2  13  14  15  16  17  18  19  20  21  23  24  26 0
 3-21G
 ****
 27  28  34  35  38  39  40  41  42  43  44  45  46  47  48 0
 3-21G
 ****


