%nproc=1
%NoSave
%Mem=1900MB
#P OB98/GEN NMR

erre ene a

0 1
  C       84.340     -21.574     -34.655
  O       83.400     -21.247     -35.655
  H       83.868     -21.454     -33.676
  H       85.198     -20.899     -34.713
  H       84.673     -22.610     -34.762
  P       83.826     -21.503     -37.181
  C       82.378     -23.564     -37.811
  O       82.553     -22.159     -37.909
  C       81.878     -24.133     -39.140
  O       81.721     -25.569     -39.005
  C       80.534     -23.552     -39.589
  O       80.559     -23.389     -41.010
  C       79.536     -24.635     -39.223
  O       78.353     -24.585     -40.021
  C       80.377     -25.906     -39.397
  N       79.843     -27.013     -38.609
  C       79.012     -27.916     -39.277
  O       78.753     -27.754     -40.472
  N       78.447     -28.946     -38.570
  C       78.625     -29.018     -37.288
  N       78.014     -30.045     -36.637
  C       79.438     -28.048     -36.529
  C       80.018     -27.086     -37.246
  O       84.856     -22.722     -37.079
  O       84.405     -20.325     -37.890
  H       78.566     -24.945     -40.910
  H       85.537     -22.669     -37.777
  H       79.536     -28.135     -35.457
  H       80.628     -26.325     -36.775
  H       80.405     -26.207     -40.453
  H       79.237     -24.518     -38.174
  H       80.298     -22.595     -39.117
  H       82.649     -23.966     -39.901
  H       77.449     -30.679     -37.191
  H       81.639     -23.777     -37.033
  H       78.045     -30.172     -35.637
  H       83.329     -24.030     -37.531
  P       80.901     -21.923     -41.561
  C       83.362     -21.179     -41.183
  O       82.445     -21.899     -41.995
  O       80.864     -21.015     -40.243
  O       79.943     -21.432     -42.596
  H       80.073     -20.445     -40.254
  H       84.344     -21.256     -41.600
  H       83.361     -21.588     -40.194
  H       83.072     -20.150     -41.143

 6  7  8  9  10  11  12  13  14  15  16  26  30  31  32  33  35 0
 6-311+G(2d,p)
 ****
 37  38 0
 6-311+G(2d,p)
 ****
 1  2  3  4  5  17  18  19  20  21  22  23  24  25 0
 3-21G
 ****
 27  28  29  34  36  39  40  41  42  43  44  45  46 0
 3-21G
 ****


