%nproc=1
%NoSave
%Mem=1900MB
#P OB98/GEN NMR

erre ene a

0 1
  C      -68.630     342.024     -70.966
  O      -68.066     342.415     -69.727
  H      -69.577     341.513     -70.772
  H      -67.962     341.338     -71.494
  H      -68.829     342.902     -71.588
  P      -66.643     343.153     -69.734
  C      -67.573     345.543     -69.394
  O      -66.915     344.641     -70.277
  C      -66.548     346.371     -68.620
  O      -65.638     347.020     -69.529
  C      -67.159     347.476     -67.758
  O      -67.628     346.949     -66.528
  C      -65.953     348.389     -67.582
  O      -65.056     347.820     -66.599
  C      -65.307     348.328     -68.976
  N      -63.836     352.034     -72.126
  C      -63.095     351.281     -71.238
  N      -61.778     351.576     -71.153
  N      -63.596     350.329     -70.488
  C      -64.939     350.192     -70.627
  C      -65.783     350.893     -71.461
  C      -65.204     351.893     -72.331
  O      -65.827     352.568     -73.152
  N      -67.099     350.538     -71.256
  C      -67.035     349.590     -70.342
  N      -65.747     349.348     -69.916
  O      -65.534     342.440     -70.446
  O      -66.310     343.385     -68.184
  H      -64.742     346.970     -66.958
  H      -65.787     342.647     -67.821
  H      -63.397     352.757     -72.671
  H      -67.889     349.043     -69.948
  H      -64.212     348.397     -68.927
  H      -66.223     349.387     -67.231
  H      -61.361     352.389     -71.590
  H      -67.940     348.023     -68.297
  H      -61.229     351.072     -70.462
  H      -65.951     345.679     -68.008
  H      -68.183     344.944     -68.706
  H      -68.239     346.208     -69.954
  P      -68.734     347.718     -65.649
  C      -70.606     346.280     -66.727
  O      -70.105     347.585     -66.485
  O      -68.374     349.112     -65.267
  O      -69.010     346.744     -64.414
  H      -68.360     346.872     -63.675
  H      -71.514     346.345     -67.289
  H      -70.798     345.793     -65.794
  H      -69.884     345.718     -67.281

 6  7  8  9  10  11  12  13  14  15  26  29  33  34 0
 6-311+G(2d,p)
 ****
 36  38  39  40  41 0
 6-311+G(2d,p)
 ****
 1  2  3  4  5  16  17  18  19  20  21  22  23  24  25 0
 3-21G
 ****
 27  28  30  31  32  35  37  42  43  44  45  46  47 0
 3-21G
 ****
 48  49 0
 3-21G
 ****


