%nproc=1
%NoSave
%Mem=1900MB
#P OB98/GEN NMR

erre ene a

0 1
  C       82.855    -188.418    -266.396
  O       82.888    -188.249    -264.990
  H       83.865    -188.643    -266.746
  H       82.509    -187.498    -266.874
  H       82.194    -189.248    -266.662
  P       81.484    -187.949    -264.274
  C       81.388    -190.488    -263.681
  O       81.258    -189.148    -263.228
  C       82.158    -191.322    -262.648
  O       83.546    -190.867    -262.624
  C       81.614    -191.183    -261.216
  O       81.866    -192.416    -260.514
  C       82.512    -190.094    -260.648
  O       82.439    -190.075    -259.242
  C       83.845    -190.514    -261.258
  N       87.710    -188.595    -258.535
  C       86.953    -189.703    -258.370
  N       85.944    -190.150    -259.147
  C       85.766    -189.338    -260.204
  C       86.454    -188.175    -260.503
  C       87.468    -187.798    -259.608
  N       88.227    -186.658    -259.753
  N       85.959    -187.599    -261.662
  C       84.994    -188.406    -262.055
  N       84.842    -189.469    -261.207
  O       80.413    -188.246    -265.426
  O       81.331    -186.580    -263.702
  H       82.921    -189.306    -258.876
  H       80.206    -187.420    -265.907
  H       87.185    -190.311    -257.498
  H       84.371    -188.270    -262.931
  H       84.270    -191.402    -260.765
  H       82.206    -189.107    -261.007
  H       80.549    -190.949    -261.176
  H       82.175    -192.373    -262.972
  H       81.926    -190.485    -264.633
  H       80.397    -190.920    -263.826
  H       88.913    -186.450    -259.049
  H       88.037    -186.040    -260.526
  P       81.057    -193.738    -260.942
  C       82.433    -194.642    -262.967
  O       82.047    -194.809    -261.611
  O       80.216    -193.217    -262.207
  O       80.133    -194.291    -259.903
  H       79.292    -193.520    -262.134
  H       83.090    -195.437    -263.251
  H       82.937    -193.705    -263.082
  H       81.563    -194.658    -263.590

 6  7  8  9  10  11  12  13  14  15  25  28  32  33  34  35 0
 6-311+G(2d,p)
 ****
 36  37  40 0
 6-311+G(2d,p)
 ****
 1  2  3  4  5  16  17  18  19  20  21  22  23  24 0
 3-21G
 ****
 26  27  29  30  31  38  39 41  42  43  44  45  46  47  48 0
 3-21G
 ****


