%nproc=1
%NoSave
%Mem=1900MB
#P OB98/GEN NMR

erre ene a

0 1
  C     -151.363     662.936     108.116
  O     -152.018     662.026     108.982
  H     -151.439     663.936     108.549
  H     -151.855     662.937     107.140
  H     -150.311     662.672     108.008
  P     -152.038     660.488     108.516
  C     -153.669     659.110     107.034
  O     -153.159     660.393     107.358
  C     -155.078     659.230     106.461
  O     -155.132     660.273     105.483
  C     -155.593     657.962     105.775
  O     -156.109     657.043     106.733
  C     -156.668     658.524     104.874
  O     -157.902     658.766     105.595
  C     -156.035     659.853     104.408
  N     -156.103     660.976      99.488
  C     -157.003     661.294     100.481
  N     -158.116     661.959     100.108
  N     -156.838     660.964     101.734
  C     -155.694     660.278     101.968
  C     -154.713     659.921     101.054
  C     -154.899     660.304      99.678
  O     -154.105     660.123      98.760
  N     -153.698     659.234     101.681
  C     -154.077     659.141     102.937
  N     -155.286     659.744     103.162
  O     -152.737     659.734     109.750
  O     -150.717     659.896     108.182
  H     -158.521     659.218     105.010
  H     -152.380     658.831     109.812
  H     -156.288     661.275      98.540
  H     -153.519     658.652     103.722
  H     -156.774     660.639     104.268
  H     -156.909     657.837     104.055
  H     -158.453     661.933      99.152
  H     -154.793     657.492     105.182
  H     -158.798     662.167     100.828
  H     -155.743     659.503     107.288
  H     -153.688     658.494     107.942
  H     -153.000     658.627     106.307
  P     -155.830     655.467     106.484
  C     -157.077     653.609     105.179
  O     -156.874     655.001     105.376
  O     -156.378     654.782     107.828
  O     -154.398     655.124     106.218
  H     -156.017     653.881     107.902
  H     -157.802     653.460     104.407
  H     -157.428     653.168     106.088
  H     -156.153     653.151     104.894

 6  7  8  9  10  11  12  13  14  15  26  29  33  34 0
 6-311+G(2d,p)
 ****
 36  38  39  40  41 0
 6-311+G(2d,p)
 ****
 1  2  3  4  5  16  17  18  19  20  21  22  23  24  25 0
 3-21G
 ****
 27  28  30  31  32  35  37  42  43  44  45  46  47 0
 3-21G
 ****
 48  49 0
 3-21G
 ****


