%nproc=1
%NoSave
%Mem=1900MB
#P OB98/GEN NMR

erre ene a

0 1
  C     -373.511    -457.765     187.381
  O     -373.829    -457.275     186.078
  P     -372.631    -457.023     185.053
  C     -373.628    -455.101     183.622
  O     -373.249    -456.478     183.663
  C     -374.122    -454.711     182.222
  O     -372.970    -454.645     181.321
  C     -375.092    -455.711     181.581
  O     -376.487    -455.544     181.820
  C     -374.871    -455.432     180.094
  O     -375.668    -454.286     179.687
  C     -373.391    -455.076     180.007
  N     -370.748    -457.025     176.068
  C     -371.466    -455.877     176.205
  N     -372.132    -455.434     177.290
  C     -372.018    -456.300     178.310
  C     -371.322    -457.499     178.327
  C     -370.674    -457.865     177.134
  N     -369.952    -459.031     176.992
  N     -371.428    -458.111     179.548
  C     -372.200    -457.307     180.266
  N     -372.567    -456.188     179.558
  O     -371.629    -458.116     184.914
  O     -371.941    -455.690     185.645
  H     -375.527    -454.190     178.728
  H     -370.977    -455.760     185.525
  H     -371.501    -455.240     175.330
  H     -372.505    -457.493     181.279
  H     -373.197    -454.236     179.322
  H     -375.182    -456.267     179.451
  H     -374.800    -456.746     181.804
  H     -374.573    -453.717     182.258
  H     -372.762    -454.479     183.892
  H     -369.549    -459.231     176.093
  H     -369.920    -459.689     177.755
  H     -374.387    -454.941     184.391
  P     -377.414    -456.788     182.214
  C     -379.914    -456.858     181.396
  O     -378.927    -456.221     182.168
  O     -377.047    -457.483     183.476
  O     -377.344    -457.703     180.899
  H     -377.785    -457.320     180.117
  H     -380.887    -456.456     181.671
  H     -379.904    -457.936     181.582
  H     -379.733    -456.662     180.337
  H     -374.411    -457.882     187.947
  H     -372.866    -457.069     187.876
  H     -373.017    -458.711     187.296

 3  4  5  6  7  8  9  10  11  12  22  25  29  30  31  32 0
 6-311+G(2d,p)
 ****
 33  36  37 0
 6-311+G(2d,p)
 ****
 1  2  13  14  15  16  17  18  19  20  21  23  24  26 0
 3-21G
 ****
 27  28  34  35  38  39  40  41  42  43  44  45  46  47  48 0
 3-21G
 ****


