%nproc=1
%NoSave
%Mem=1900MB
#P OB98/GEN NMR

erre ene a

0 1
  C     -165.710      64.011     -18.922
  O     -166.189      65.179     -18.285
  P     -166.762      66.416     -19.128
  C     -165.230      67.965     -17.758
  O     -165.629      67.554     -19.057
  C     -165.714      69.381     -17.447
  O     -165.207      69.797     -16.150
  C     -165.284      70.444     -18.472
  O     -166.350      71.398     -18.534
  C     -164.062      71.054     -17.815
  O     -163.737      72.335     -18.345
  C     -164.483      71.034     -16.341
  N     -163.342      71.148     -15.439
  C     -163.123      72.400     -14.854
  O     -163.835      73.361     -15.162
  N     -162.082      72.549     -13.977
  C     -161.260      71.565     -13.787
  N     -160.245      71.767     -12.899
  C     -161.378      70.264     -14.476
  C     -162.441      70.124     -15.277
  O     -168.129      66.870     -18.741
  O     -166.658      65.922     -20.645
  H     -163.618      72.247     -19.316
  H     -167.393      65.292     -20.856
  H     -160.640      69.494     -14.332
  H     -162.609      69.210     -15.825
  H     -165.180      71.855     -16.127
  H     -163.193      70.399     -17.971
  H     -165.073      70.034     -19.465
  H     -166.810      69.356     -17.375
  H     -160.211      72.666     -12.435
  H     -164.136      67.950     -17.719
  H     -159.605      71.041     -12.616
  H     -165.600      67.255     -17.010
  P     -166.814      72.039     -19.929
  C     -165.648      74.267     -19.460
  O     -165.730      73.147     -20.321
  O     -168.234      72.505     -19.970
  O     -166.554      70.876     -21.004
  H     -167.043      71.078     -21.826
  H     -164.710      74.798     -19.653
  H     -165.669      73.958     -18.408
  H     -166.488      74.941     -19.654
  H     -165.375      63.313     -18.183
  H     -164.895      64.265     -19.567
  H     -166.497      63.571     -19.498

 3  4  5  6  7  8  9  10  11  12  13  23  27  28  29  30  32 0
 6-311+G(2d,p)
 ****
 34  35 0
 6-311+G(2d,p)
 ****
 1  2  14  15  16  17  18  19  20  21  22  24  25  26 0
 3-21G
 ****
 31  33  36  37  38  39  40  41  42  43  44  45  46 0
 3-21G
 ****


