%nproc=1
%NoSave
%Mem=1900MB
#P OB98/GEN NMR

erre ene a

0 1
  C       91.050    -220.391    -118.496
  O       90.859    -219.226    -119.274
  H       90.344    -220.376    -117.663
  H       92.067    -220.402    -118.096
  H       90.872    -221.290    -119.093
  P       91.553    -219.199    -120.721
  C       93.636    -217.852    -119.956
  O       93.135    -219.078    -120.465
  C       94.947    -217.489    -120.646
  O       95.963    -218.469    -120.347
  C       94.856    -217.417    -122.168
  O       94.362    -216.157    -122.603
  C       96.318    -217.588    -122.546
  O       97.026    -216.350    -122.323
  C       96.786    -218.645    -121.535
  N       99.291    -222.717    -123.229
  C       99.760    -221.455    -122.916
  N      101.083    -221.247    -123.087
  N       99.001    -220.482    -122.480
  C       97.696    -220.828    -122.381
  C       97.110    -222.042    -122.666
  C       97.964    -223.111    -123.131
  O       97.598    -224.250    -123.412
  N       95.758    -222.015    -122.444
  C       95.523    -220.780    -122.046
  N       96.666    -220.018    -121.994
  O       91.147    -217.753    -121.281
  O       91.125    -220.282    -121.652
  H       97.958    -216.506    -122.567
  H       90.420    -217.857    -121.924
  H       99.917    -223.425    -123.570
  H       94.551    -220.390    -121.778
  H       97.830    -218.501    -121.235
  H       96.455    -217.847    -123.597
  H      101.719    -221.943    -123.440
  H       94.270    -218.248    -122.580
  H      101.448    -220.329    -122.862
  H       95.288    -216.530    -120.235
  H       93.809    -217.956    -118.880
  H       92.893    -217.065    -120.126
  P       93.113    -216.138    -123.611
  C       94.713    -215.574    -125.573
  O       93.694    -216.432    -125.080
  O       92.728    -214.586    -123.664
  O       91.951    -216.975    -123.198
  H       91.865    -214.442    -123.230
  H       95.000    -215.888    -126.555
  H       95.561    -215.617    -124.923
  H       94.345    -214.570    -125.613

 6  7  8  9  10  11  12  13  14  15  26  29  33  34 0
 6-311+G(2d,p)
 ****
 36  38  39  40  41 0
 6-311+G(2d,p)
 ****
 1  2  3  4  5  16  17  18  19  20  21  22  23  24  25 0
 3-21G
 ****
 27  28  30  31  32  35  37  42  43  44  45  46  47 0
 3-21G
 ****
 48  49 0
 3-21G
 ****


