%nproc=1
%NoSave
%Mem=1900MB
#P OB98/GEN NMR

erre ene a

0 1
  C     -509.193     -24.102    -381.462
  O     -510.375     -24.384    -380.739
  H     -508.459     -24.887    -381.252
  H     -508.775     -23.143    -381.147
  H     -509.388     -24.087    -382.540
  P     -511.667     -23.476    -380.996
  C     -513.316     -25.459    -380.971
  O     -512.913     -24.245    -380.346
  C     -514.328     -26.187    -380.094
  O     -513.656     -26.782    -378.959
  C     -515.397     -25.278    -379.500
  O     -516.366     -24.919    -380.467
  C     -515.910     -26.143    -378.362
  O     -516.858     -27.103    -378.831
  C     -514.615     -26.840    -377.879
  N     -514.085     -26.226    -376.666
  C     -514.630     -26.669    -375.463
  O     -515.507     -27.522    -375.388
  N     -514.179     -26.028    -374.334
  C     -513.360     -24.938    -374.314
  O     -513.179     -24.256    -373.311
  C     -512.761     -24.558    -375.600
  C     -513.156     -25.202    -376.708
  O     -511.869     -23.023    -382.408
  O     -511.459     -22.233    -380.009
  H     -511.145     -21.463    -380.522
  H     -517.534     -26.593    -379.320
  H     -514.604     -26.315    -373.461
  H     -512.056     -23.743    -375.615
  H     -512.757     -24.920    -377.671
  H     -514.809     -27.904    -377.677
  H     -516.395     -25.543    -377.589
  H     -514.924     -24.379    -379.082
  H     -514.784     -26.995    -380.684
  H     -512.433     -26.092    -381.114
  H     -513.745     -25.231    -381.953
  P     -516.677     -23.375    -380.760
  C     -517.263     -23.645    -383.247
  O     -517.745     -23.294    -381.954
  O     -515.477     -22.504    -380.937
  O     -517.531     -22.902    -379.492
  H     -517.144     -22.074    -379.133
  H     -518.056     -23.555    -383.960
  H     -516.908     -24.654    -383.234
  H     -516.463     -22.989    -383.519

 6  7  8  9  10  11  12  13  14  15  16  27  31  32  33  34  35 0
 6-311+G(2d,p)
 ****
 36  37 0
 6-311+G(2d,p)
 ****
 1  2  3  4  5  17  18  19  20  21  22  23  24  25 0
 3-21G
 ****
 26  28  29  30  38  39  40  41  42  43  44  45 0
 3-21G
 ****


