%nproc=1
%NoSave
%Mem=1900MB
#P OB98/GEN NMR

erre ene a

0 1
  C      441.443    -894.730     110.303
  O      441.912    -895.420     111.445
  H      440.812    -895.400     109.734
  H      442.294    -894.430     109.681
  H      440.858    -893.840     110.603
  P      442.740    -894.610     112.565
  C      442.878    -894.580     115.144
  O      442.305    -895.200     113.995
  C      442.073    -894.950     116.389
  O      440.669    -894.620     116.200
  C      442.071    -896.450     116.682
  O      443.306    -896.850     117.279
  C      440.857    -896.560     117.616
  O      441.190    -896.180     118.947
  C      439.878    -895.560     116.953
  N      438.864    -896.200     116.105
  C      437.762    -896.730     116.745
  O      437.612    -896.670     117.970
  N      436.835    -897.320     115.935
  C      436.956    -897.540     114.590
  O      436.125    -898.150     113.924
  C      438.184    -896.990     113.969
  C      439.049    -896.370     114.734
  O      442.704    -893.120     112.449
  O      444.233    -895.180     112.391
  H      440.416    -896.380     119.501
  H      444.776    -894.510     111.921
  H      436.027    -897.720     116.381
  H      438.310    -897.140     112.897
  H      439.962    -895.950     114.294
  H      439.352    -894.990     117.727
  H      440.476    -897.570     117.655
  H      441.872    -897.030     115.773
  H      442.442    -894.380     117.245
  H      442.831    -893.480     114.993
  H      443.928    -894.890     115.247
  P      444.087    -898.110     116.691
  C      446.332    -899.200     117.338
  O      445.627    -897.980     117.139
  O      443.871    -898.390     115.238
  O      443.554    -899.350     117.586
  H      443.130    -900.000     117.020
  H      447.339    -898.986     117.631
  H      446.337    -899.761     116.427
  H      445.850    -899.769     118.105

 6  7  8  9  10  11  12  13  14  15  16  26  31  32  33  34  35 0
 6-311+G(2d,p)
 ****
 36  37 0
 6-311+G(2d,p)
 ****
 1  2  3  4  5  17  18  19  20  21  22  23  24  25 0
 3-21G
 ****
 27  28  29  30  38  39  40  41  42  43  44  45 0
 3-21G
 ****


