%nproc=1
%NoSave
%Mem=1900MB
#P OB98/GEN NMR

erre ene a

0 1
  C       24.840     157.084     228.445
  O       23.681     156.291     228.268
  H       24.554     158.018     228.936
  H       25.287     157.318     227.474
  H       25.562     156.559     229.075
  P       23.894     154.856     227.580
  C       24.354     154.120     225.139
  O       24.276     155.201     226.060
  C       25.492     154.343     224.146
  O       26.722     154.625     224.841
  C       25.788     153.147     223.250
  O       24.876     153.091     222.166
  C       27.197     153.482     222.784
  O       27.139     154.454     221.721
  C       27.823     154.117     224.040
  N       32.315     151.672     224.486
  C       31.769     152.363     223.463
  N       30.554     152.950     223.400
  C       29.876     152.769     224.544
  C       30.306     152.086     225.674
  C       31.596     151.527     225.622
  N       32.154     150.832     226.673
  N       29.338     152.106     226.657
  C       28.364     152.836     226.150
  N       28.625     153.227     224.862
  O       22.795     153.872     227.780
  O       25.310     154.429     228.199
  H       28.053     154.747     221.541
  H       25.903     155.198     228.260
  H       32.389     152.460     222.575
  H       27.460     153.118     226.676
  H       28.465     154.969     223.786
  H       27.724     152.610     222.390
  H       25.812     152.213     223.822
  H       25.247     155.231     223.549
  H       23.407     154.008     224.601
  H       33.007     150.322     226.493
  H       31.568     150.620     227.467
  H       24.531     153.208     225.719
  P       24.760     151.771     221.261
  C       25.865     150.990     219.073
  O       25.985     151.818     220.225
  O       23.428     151.549     220.634
  O       25.161     150.575     222.244
  H       24.609     149.789     222.067
  H       26.735     151.104     218.460
  H       24.997     151.276     218.517
  H       25.774     149.968     219.376

 6  7  8  9  10  11  12  13  14  15  25  28  32  33  34  35 0
 6-311+G(2d,p)
 ****
 36  39  40 0
 6-311+G(2d,p)
 ****
 1  2  3  4  5  16  17  18  19  20  21  22  23  24 0
 3-21G
 ****
 26  27  29  30  31  37  38  41  42  43  44  45  46  47 0
 3-21G
 ****
 48 0
 3-21G
 ****


