%nproc=1
%NoSave
%Mem=1900MB
#P OB98/GEN NMR

erre ene a

0 1
  C     -109.255     232.725     -89.551
  O     -108.440     232.064     -90.499
  P     -108.596     232.345     -92.068
  C     -109.942     230.198     -92.442
  O     -109.928     231.612     -92.572
  C     -110.498     229.525     -93.697
  O     -111.898     229.874     -93.850
  C     -109.772     229.920     -94.993
  O     -109.704     228.747     -95.813
  C     -110.704     230.946     -95.608
  O     -110.509     231.085     -97.008
  C     -112.065     230.386     -95.187
  N     -113.122     231.386     -95.249
  C     -113.690     231.631     -96.500
  O     -113.209     231.113     -97.511
  N     -114.778     232.467     -96.574
  C     -115.135     233.142     -95.525
  N     -116.258     233.907     -95.624
  C     -114.397     233.092     -94.247
  C     -113.439     232.172     -94.166
  O     -107.382     232.058     -92.887
  O     -108.988     233.898     -92.151
  H     -108.371     234.350     -92.760
  H     -110.722     230.233     -97.447
  H     -114.656     233.766     -93.443
  H     -112.858     232.039     -93.260
  H     -112.345     229.536     -95.825
  H     -110.530     231.925     -95.145
  H     -108.761     230.297     -94.815
  H     -110.447     228.440     -93.554
  H     -116.762     233.884     -96.503
  H     -110.576     229.940     -91.591
  H     -116.786     234.203     -94.802
  H     -108.930     229.834     -92.226
  P     -108.260     228.268     -96.339
  C     -108.348     229.118     -98.789
  O     -107.800     229.275     -97.495
  O     -108.643     226.950     -97.174
  O     -107.249     227.928     -95.291
  H     -107.868     226.359     -97.210
  H     -107.872     229.842     -99.458
  H     -109.422     229.316     -98.770
  H     -108.158     228.113     -99.170
  H     -108.993     232.399     -88.566
  H     -110.282     232.495     -89.742
  H     -109.106     233.782     -89.628

 3  4  5  6  7  8  9  10  11  12  13  24  27  28  29  30  32 0
 6-311+G(2d,p)
 ****
 34  35 0
 6-311+G(2d,p)
 ****
 1  2  14  15  16  17  18  19  20  21  22  23  25  26 0
 3-21G
 ****
 31  33  36  37  38  39  40  41  42  43  44  45  46 0
 3-21G
 ****


