%nproc=1
%NoSave
%Mem=1900MB
#P OB98/GEN NMR

erre ene a

0 1
  C     -405.474    -785.044    -585.074
  O     -406.325    -783.930    -584.854
  H     -406.084    -785.873    -585.466
  H     -405.003    -785.363    -584.144
  H     -404.711    -784.789    -585.815
  P     -405.649    -782.635    -584.182
  C     -407.259    -780.851    -585.184
  O     -406.819    -781.536    -584.016
  C     -408.201    -779.712    -584.762
  O     -409.356    -780.272    -584.091
  C     -407.589    -778.730    -583.781
  O     -406.736    -777.779    -584.413
  C     -408.850    -778.078    -583.211
  O     -409.327    -777.014    -584.039
  C     -409.835    -779.249    -583.178
  N     -410.026    -779.768    -581.824
  C     -410.921    -779.052    -581.023
  O     -411.519    -778.054    -581.404
  N     -411.077    -779.516    -579.742
  C     -410.396    -780.555    -579.173
  O     -410.528    -780.878    -578.004
  C     -409.449    -781.268    -580.059
  C     -409.310    -780.848    -581.322
  O     -404.745    -782.044    -585.360
  O     -404.867    -782.896    -582.950
  H     -403.808    -782.229    -585.173
  H     -410.063    -776.590    -583.546
  H     -411.716    -779.014    -579.138
  H     -408.887    -782.103    -579.649
  H     -408.608    -781.345    -582.000
  H     -410.812    -778.930    -583.556
  H     -408.651    -777.658    -582.217
  H     -407.065    -779.259    -582.988
  H     -408.553    -779.203    -585.668
  H     -407.808    -781.532    -585.842
  H     -406.394    -780.457    -585.715
  P     -405.225    -777.669    -583.898
  C     -404.361    -776.354    -586.007
  O     -404.613    -776.375    -584.593
  O     -404.571    -778.904    -584.651
  O     -405.132    -777.707    -582.403
  H     -405.027    -779.112    -585.482
  H     -403.952    -775.404    -586.282
  H     -405.278    -776.514    -586.535
  H     -403.665    -777.128    -586.257

 6  7  8  9  10  11  12  13  14  15  16  27  31  32  33  34  35 0
 6-311+G(2d,p)
 ****
 36  37 0
 6-311+G(2d,p)
 ****
 1  2  3  4  5  17  18  19  20  21  22  23  24  25 0
 3-21G
 ****
 26  28  29  30  38  39  40  41  42  43  44  45 0
 3-21G
 ****


