%nproc=1
%NoSave
%Mem=1900MB
#P OB98/GEN NMR

erre ene a

0 1
  C      -46.320    -300.445     208.421
  O      -46.773    -300.943     209.687
  P      -46.945    -299.853     210.859
  C      -48.848    -301.197     212.006
  O      -47.566    -300.597     212.141
  C      -48.747    -302.686     211.662
  O      -48.070    -303.380     212.738
  C      -50.094    -303.389     211.448
  O      -49.946    -304.354     210.399
  C      -50.294    -304.156     212.744
  O      -51.184    -305.259     212.585
  C      -48.852    -304.541     213.065
  N      -47.180    -308.163     216.172
  C      -47.107    -308.081     214.795
  N      -46.526    -309.118     214.158
  N      -47.564    -307.065     214.107
  C      -48.088    -306.084     214.877
  C      -48.208    -306.048     216.252
  C      -47.739    -307.194     216.996
  O      -47.820    -307.353     218.212
  N      -48.799    -304.879     216.672
  C      -49.041    -304.217     215.557
  N      -48.636    -304.910     214.444
  O      -48.140    -298.931     210.324
  O      -45.713    -299.052     211.118
  H      -51.381    -305.599     213.478
  H      -47.850    -297.998     210.284
  H      -46.833    -308.977     216.650
  H      -49.527    -303.255     215.496
  H      -48.510    -305.368     212.432
  H      -50.714    -303.485     213.505
  H      -46.098    -309.898     214.630
  H      -50.927    -302.717     211.224
  H      -46.424    -309.053     213.152
  H      -48.121    -302.787     210.766
  H      -49.408    -300.685     211.220
  H      -49.395    -301.063     212.946
  P      -50.595    -303.969     208.981
  C      -48.817    -305.048     207.415
  O      -50.123    -305.110     207.963
  O      -49.753    -302.684     208.527
  O      -52.060    -303.701     209.030
  H      -50.290    -302.122     207.935
  H      -48.196    -304.307     207.919
  H      -48.888    -304.791     206.356
  H      -48.345    -306.029     207.514
  H      -46.244    -301.255     207.726
  H      -45.361    -299.986     208.541
  H      -47.017    -299.722     208.052

 3  4  5  6  7  8  9  10  11  12  23  26  30  31  33  0
 6-311+G(2d,p)
 ****
 35  36  37  38 0
 6-311+G(2d,p)
 ****
 1  2  13  14  15  16  17  18  19  20  21  22  24  25  27  28  29 0
 3-21G
 ****
 32  34  39  40  41  42  43  44  45  46  47  48  49 0
 3-21G
 ****


