%nproc=1
%NoSave
%Mem=1900MB
#P OB98/GEN NMR

erre ene a

0 1
  C      -37.603      92.842     -35.791
  O      -36.939      91.894     -36.602
  H      -38.618      92.486     -35.595
  H      -37.662      93.800     -36.314
  H      -37.083      92.968     -34.838
  P      -35.369      92.124     -36.839
  C      -33.537      90.744     -38.053
  O      -34.778      90.727     -37.364
  C      -33.018      89.321     -38.238
  O      -32.797      88.696     -36.954
  C      -33.966      88.402     -39.002
  O      -33.842      88.567     -40.408
  C      -33.450      87.042     -38.561
  O      -32.238      86.726     -39.276
  C      -33.143      87.287     -37.079
  N      -34.763      84.309     -33.311
  C      -33.559      84.308     -33.988
  N      -32.660      83.372     -33.614
  N      -33.262      85.144     -34.949
  C      -34.260      86.016     -35.224
  C      -35.495      86.118     -34.622
  C      -35.806      85.193     -33.557
  O      -36.848      85.166     -32.909
  N      -36.234      87.134     -35.165
  C      -35.459      87.635     -36.107
  N      -34.251      86.986     -36.188
  O      -34.781      92.236     -35.351
  O      -35.013      93.321     -37.654
  H      -32.490      86.586     -40.208
  H      -34.053      92.887     -35.349
  H      -34.944      83.636     -32.587
  H      -35.721      88.462     -36.751
  H      -32.283      86.705     -36.728
  H      -34.159      86.238     -38.762
  H      -32.843      82.668     -32.917
  H      -35.002      88.525     -38.667
  H      -31.758      83.373     -34.073
  H      -32.046      89.380     -38.745
  H      -32.810      91.321     -37.473
  H      -33.678      91.223     -39.027
  P      -35.068      88.077     -41.324
  C      -36.378      89.109     -43.316
  O      -35.344      89.277     -42.353
  O      -36.317      88.154     -40.325
  O      -34.908      86.722     -41.922
  H      -37.026      87.556     -40.631
  H      -36.443      89.985     -43.926
  H      -37.310      88.954     -42.815
  H      -36.158      88.261     -43.931

 6  7  8  9  10  11  12  13  14  15  26  29  33  34 0
 6-311+G(2d,p)
 ****
 36  38  39  40  41 0
 6-311+G(2d,p)
 ****
 1  2  3  4  5  16  17  18  19  20  21  22  23  24  25 0
 3-21G
 ****
 27  28  30  31  32  35  37  42  43  44  45  46  47 0
 3-21G
 ****
 48  49 0
 3-21G
 ****


