%nproc=1
%NoSave
%Mem=1900MB
#P OB98/GEN NMR

erre ene a

0 1
  C       15.319      34.904    -302.252
  O       16.302      35.512    -303.067
  H       15.593      35.049    -301.203
  H       15.270      33.831    -302.458
  H       14.344      35.363    -302.430
  P       16.107      35.353    -304.652
  C       15.266      37.727    -305.260
  O       14.929      36.361    -305.065
  C       14.471      38.313    -306.423
  O       14.578      37.469    -307.591
  C       12.983      38.488    -306.143
  O       12.736      39.702    -305.454
  C       12.414      38.487    -307.554
  O       12.580      39.778    -308.180
  C       13.283      37.430    -308.250
  N        9.348      34.522    -309.492
  C        9.522      35.886    -309.615
  N        8.482      36.587    -310.119
  N       10.613      36.514    -309.264
  C       11.547      35.697    -308.723
  C       11.493      34.333    -308.544
  C       10.300      33.645    -308.988
  O       10.119      32.431    -308.982
  N       12.650      33.861    -307.978
  C       13.384      34.940    -307.783
  N       12.755      36.079    -308.213
  O       15.425      33.910    -304.801
  O       17.354      35.444    -305.463
  H       13.528      39.936    -308.337
  H       15.783      33.476    -305.598
  H        8.498      34.089    -309.807
  H       14.373      34.948    -307.346
  H       13.452      37.671    -309.306
  H       11.343      38.281    -307.556
  H        7.543      36.218    -310.129
  H       12.582      37.631    -305.590
  H        8.585      37.594    -310.139
  H       14.929      39.276    -306.682
  H       16.336      37.801    -305.478
  H       15.049      38.286    -304.345
  P       11.407      39.812    -304.566
  C       12.383      39.706    -302.163
  O       11.666      39.032    -303.187
  O       10.378      38.864    -305.346
  O       10.862      41.193    -304.429
  H        9.727      39.407    -305.828
  H       12.476      39.065    -301.311
  H       11.856      40.595    -301.884
  H       13.357      39.966    -302.522

 6  7  8  9  10  11  12  13  14  15  26  29  33  34 0
 6-311+G(2d,p)
 ****
 36  38  39  40  41 0
 6-311+G(2d,p)
 ****
 1  2  3  4  5  16  17  18  19  20  21  22  23  24  25 0
 3-21G
 ****
 27  28  30  31  32  35  37  42  43  44  45  46  47 0
 3-21G
 ****
 48  49 0
 3-21G
 ****


