%nproc=1
%NoSave
%Mem=1900MB
#P OB98/GEN NMR

erre ene a

0 1
  C      169.334     296.359     -80.123
  O      169.888     296.208     -78.831
  H      168.255     296.505     -80.025
  H      169.513     295.461     -80.717
  H      169.757     297.231     -80.629
  P      171.482     296.184     -78.673
  C      171.362     293.680     -78.066
  O      171.832     294.969     -77.689
  C      171.932     292.623     -77.125
  O      173.351     292.479     -77.341
  C      171.766     292.954     -75.646
  O      170.434     292.731     -75.223
  C      172.800     292.022     -75.030
  O      172.284     290.685     -74.926
  C      173.938     292.093     -76.076
  N      175.012     293.007     -75.695
  C      175.813     292.615     -74.629
  O      175.624     291.580     -73.993
  N      176.832     293.473     -74.299
  C      177.069     294.691     -74.869
  O      177.966     295.444     -74.501
  C      176.172     295.066     -75.971
  C      175.201     294.224     -76.328
  O      172.120     297.485     -78.313
  O      171.993     295.652     -80.095
  H      171.900     290.467     -75.798
  H      172.300     296.402     -80.636
  H      177.415     293.213     -73.520
  H      176.326     296.030     -76.441
  H      174.524     294.488     -77.133
  H      174.377     291.096     -76.226
  H      173.096     292.324     -74.026
  H      172.070     293.989     -75.453
  H      171.455     291.661     -77.364
  H      171.690     293.471     -79.092
  H      170.268     293.679     -78.036
  P      169.579     293.911     -74.566
  C      169.120     292.812     -72.299
  O      168.550     293.244     -73.527
  O      168.954     294.860     -75.535
  O      170.618     294.663     -73.612
  H      170.879     295.516     -74.011
  H      168.357     292.386     -71.682
  H      169.559     293.648     -71.796
  H      169.873     292.077     -72.494

 6  7  8  9  10  11  12  13  14  15  16  26  31  32  33  34  35 0
 6-311+G(2d,p)
 ****
 36  37 0
 6-311+G(2d,p)
 ****
 1  2  3  4  5  17  18  19  20  21  22  23  24  25 0
 3-21G
 ****
 27  28  29  30  38  39  40  41  42  43  44  45 0
 3-21G
 ****


