%nproc=1
%NoSave
%Mem=1900MB
#P OB98/GEN NMR

erre ene a

0 1
  C     -235.514     183.595    -646.954
  O     -234.217     184.035    -646.609
  H     -235.784     183.955    -647.950
  H     -235.528     182.501    -646.955
  H     -236.240     183.956    -646.219
  P     -233.965     185.622    -646.657
  C     -231.864     184.989    -645.275
  O     -232.425     185.848    -646.257
  C     -230.364     184.817    -645.521
  O     -229.777     186.089    -645.889
  C     -229.571     184.341    -644.314
  O     -229.699     182.931    -644.113
  C     -228.155     184.720    -644.743
  O     -227.639     183.724    -645.640
  C     -228.378     186.038    -645.484
  N     -226.161     190.668    -645.458
  C     -226.279     189.737    -646.427
  N     -226.879     188.524    -646.363
  C     -227.396     188.315    -645.138
  C     -227.343     189.178    -644.055
  C     -226.684     190.399    -644.241
  N     -226.555     191.343    -643.244
  N     -227.996     188.629    -642.970
  C     -228.431     187.453    -643.380
  N     -228.082     187.217    -644.700
  O     -234.762     186.166    -645.376
  O     -234.411     186.298    -647.905
  H     -227.548     182.900    -645.121
  H     -235.146     187.034    -645.586
  H     -225.855     189.997    -647.395
  H     -228.999     186.754    -642.786
  H     -227.785     186.083    -646.408
  H     -227.464     184.790    -643.896
  H     -229.848     184.895    -643.411
  H     -230.237     184.128    -646.370
  H     -232.346     184.003    -645.338
  H     -226.253     192.271    -643.488
  H     -226.955     191.125    -642.331
  H     -232.044     185.414    -644.289
  P     -230.047     182.430    -642.638
  C     -230.859     180.276    -643.831
  O     -230.139     180.826    -642.728
  O     -231.576     182.888    -642.437
  O     -229.165     182.972    -641.551
  H     -231.765     182.995    -641.487
  H     -230.843     179.208    -643.770
  H     -230.402     180.588    -644.747
  H     -231.872     180.620    -643.803

 6  7  8  9  10  11  12  13  14  15  25  28  32  33  34  35 0
 6-311+G(2d,p)
 ****
 36  39  40 0
 6-311+G(2d,p)
 ****
 1  2  3  4  5  16  17  18  19  20  21  22  23  24 0
 3-21G
 ****
 26  27  29  30  31  37  38  41  42  43  44  45  46  47  48 0
 3-21G
 ****


