%nproc=1
%NoSave
%Mem=1900MB
#P OB98/GEN NMR

erre ene a

0 1
  C      829.550    1272.814     367.842
  O      829.649    1271.539     368.413
  P      830.843    1270.568     367.858
  C      832.728    1271.516     369.390
  O      831.867    1270.400     369.091
  C      833.279    1271.401     370.801
  O      832.165    1271.348     371.755
  C      834.120    1270.168     371.090
  O      835.458    1270.318     370.648
  C      834.048    1270.107     372.611
  O      834.961    1271.076     373.188
  C      832.582    1270.546     372.887
  N      831.260    1266.698     375.990
  C      832.266    1267.586     376.029
  N      832.572    1268.589     375.167
  C      831.726    1268.573     374.118
  C      830.649    1267.689     373.917
  C      830.454    1266.732     374.897
  N      829.384    1265.817     374.857
  N      830.024    1267.976     372.722
  C      830.657    1269.016     372.249
  N      831.679    1269.430     373.059
  O      831.610    1271.509     366.833
  O      830.366    1269.304     367.242
  H      835.848    1270.842     372.852
  H      832.094    1270.952     366.177
  H      832.933    1267.521     376.892
  H      830.407    1269.528     371.341
  H      832.505    1271.185     373.764
  H      834.299    1269.132     373.009
  H      833.654    1269.275     370.668
  H      833.832    1272.332     371.015
  H      832.181    1272.443     369.260
  H      829.221    1265.297     375.683
  H      828.664    1265.957     374.150
  H      833.573    1271.493     368.645
  P      836.404    1269.017     370.699
  C      835.386    1267.813     368.608
  O      836.491    1268.536     369.177
  O      835.442    1267.918     371.422
  O      837.666    1269.237     371.433
  H      835.982    1267.257     371.854
  H      835.482    1267.841     367.508
  H      834.438    1268.323     368.868
  H      835.377    1266.804     368.968
  H      828.735    1273.343     368.290
  H      829.380    1272.721     366.790
  H      830.460    1273.352     368.010

 3  4  5  6  7  8  9  10  11  12  22  25  29  30  31  32 0
 6-311+G(2d,p)
 ****
 33  36  37 0
 6-311+G(2d,p)
 ****
 1  2  13  14  15  16  17  18  19  20  21  23  24  26 0
 3-21G
 ****
 27  28  34  35  38  39  40  41  42  43  44  45  46  47  48 0
 3-21G
 ****


