%nproc=1
%NoSave
%Mem=1900MB
#P OB98/GEN NMR

erre ene a

0 1
  C      364.249    -163.603    -190.726
  O      363.536    -162.691    -191.538
  H      365.003    -163.047    -190.153
  H      364.759    -164.338    -191.351
  H      363.582    -164.109    -190.024
  P      362.202    -163.192    -192.271
  C      362.537    -161.727    -194.370
  O      361.732    -161.991    -193.231
  C      362.119    -160.410    -195.036
  O      360.712    -160.513    -195.419
  C      362.256    -159.172    -194.119
  O      362.576    -158.053    -194.963
  C      360.848    -159.061    -193.574
  O      360.620    -157.815    -192.953
  C      360.043    -159.368    -194.840
  N      358.630    -159.652    -194.583
  C      357.703    -158.753    -195.098
  O      357.997    -157.764    -195.764
  N      356.388    -159.033    -194.807
  C      355.942    -160.088    -194.065
  O      354.747    -160.301    -193.849
  C      356.973    -160.982    -193.526
  C      358.257    -160.727    -193.813
  O      361.137    -163.737    -191.382
  O      362.733    -164.293    -193.312
  H      362.612    -165.183    -192.924
  H      360.524    -157.112    -193.634
  H      355.697    -158.391    -195.166
  H      356.652    -161.820    -192.921
  H      359.050    -161.368    -193.428
  H      360.124    -158.546    -195.561
  H      360.674    -159.825    -192.806
  H      363.033    -159.290    -193.358
  H      362.692    -160.280    -195.961
  H      362.417    -162.553    -195.079
  H      363.593    -161.669    -194.061
  P      363.985    -157.891    -195.714
  C      364.773    -155.910    -194.262
  O      364.485    -156.368    -195.575
  O      363.974    -158.382    -197.126
  O      365.036    -158.725    -194.842
  H      365.686    -159.137    -195.430
  H      365.093    -154.890    -194.302
  H      365.549    -156.511    -193.837
  H      363.893    -155.984    -193.658

 6  7  8  9  10  11  12  13  14  15  16  27  31  32  33  34  35 0
 6-311+G(2d,p)
 ****
 36  37 0
 6-311+G(2d,p)
 ****
 1  2  3  4  5  17  18  19  20  21  22  23  24  25 0
 3-21G
 ****
 26  28  29  30  38  39  40  41  42  43  44  45 0
 3-21G
 ****


