%nproc=1
%NoSave
%Mem=1900MB
#P OB98/GEN NMR

erre ene a

0 1
  C     -186.494    -103.821     152.768
  O     -185.457    -104.545     153.438
  P     -185.004    -105.949     152.800
  C     -183.861    -106.305     150.468
  O     -183.909    -105.580     151.690
  C     -182.794    -105.718     149.548
  O     -183.070    -104.322     149.272
  C     -181.390    -105.744     150.132
  O     -180.837    -107.051     150.099
  C     -180.685    -104.731     149.232
  O     -180.315    -105.341     147.985
  C     -181.798    -103.688     148.996
  N     -181.623    -102.477     149.789
  C     -180.943    -101.436     149.160
  O     -180.490    -101.517     148.018
  N     -180.784    -100.294     149.899
  C     -181.201    -100.109     151.186
  O     -181.038     -99.058     151.794
  C     -181.869    -101.259     151.813
  C     -182.047    -102.376     151.100
  O     -186.307    -106.341     151.963
  O     -184.582    -106.947     153.826
  H     -186.756    -105.570     151.576
  H     -181.151    -105.614     147.552
  H     -180.304     -99.524     149.457
  H     -182.190    -101.158     152.844
  H     -182.536    -103.239     151.543
  H     -181.826    -103.401     147.936
  H     -179.772    -104.332     149.685
  H     -181.405    -105.372     151.167
  H     -182.821    -106.269     148.598
  H     -184.835    -106.258     149.968
  H     -183.656    -107.358     150.691
  P     -181.039    -107.952     151.419
  C     -182.500    -110.078     151.839
  O     -182.340    -108.847     151.162
  O     -181.519    -106.852     152.474
  O     -179.807    -108.700     151.821
  H     -182.179    -106.241     152.113
  H     -183.558    -110.355     151.812
  H     -182.182    -110.010     152.879
  H     -181.921    -110.854     151.327
  H     -186.694    -102.913     153.297
  H     -187.382    -104.417     152.736
  H     -186.182    -103.592     151.771

 3  4  5  6  7  8  9  10  11  12  13  24  28  29  30  31  32 0
 6-311+G(2d,p)
 ****
 33  34 0
 6-311+G(2d,p)
 ****
 1  2  14  15  16  17  18  19  20  21  22  23  25  26  27 0
 3-21G
 ****
 35  36  37  38  39  40  41  42  43  44  45 0
 3-21G
 ****


