%nproc=1
%NoSave
%Mem=1900MB
#P OB98/GEN NMR

erre ene a

0 1
  C       17.694     -10.631      34.089
  O       18.451      -9.775      33.258
  H       16.626     -10.485      33.909
  H       17.951     -11.668      33.856
  H       17.924     -10.437      35.141
  P       18.195      -8.199      33.418
  C       15.785      -8.537      32.497
  O       17.025      -7.856      32.373
  C       14.734      -7.828      31.651
  O       13.480      -8.546      31.712
  C       14.423      -6.411      32.119
  O       15.363      -5.463      31.645
  C       13.058      -6.198      31.486
  O       13.210      -5.926      30.082
  C       12.402      -7.571      31.696
  N        7.732      -7.512      33.790
  C        8.145      -7.444      32.506
  N        9.406      -7.488      32.030
  C       10.288      -7.627      33.031
  C       10.016      -7.717      34.387
  C        8.663      -7.649      34.762
  N        8.240      -7.686      36.071
  N       11.186      -7.831      35.111
  C       12.143      -7.828      34.206
  N       11.653      -7.674      32.937
  O       19.485      -7.532      32.745
  O       17.944      -7.717      34.807
  H       13.711      -6.672      29.699
  H       19.543      -6.588      32.984
  H        7.359      -7.337      31.764
  H       13.200      -7.923      34.417
  H       11.720      -7.842      30.882
  H       12.519      -5.353      31.920
  H       14.322      -6.361      33.209
  H       15.070      -7.834      30.607
  H       15.478      -8.532      33.548
  H        7.269      -7.481      36.247
  H        8.930      -7.639      36.806
  H       15.904      -9.572      32.162
  P       15.566      -4.125      32.511
  C       13.783      -2.785      31.180
  O       15.149      -2.902      31.559
  O       17.157      -3.996      32.602
  O       14.921      -4.151      33.858
  H       17.425      -3.583      33.445
  H       13.660      -1.929      30.550
  H       13.178      -2.674      32.056
  H       13.484      -3.664      30.649

 6  7  8  9  10  11  12  13  14  15  25  28  32  33  34  35 0
 6-311+G(2d,p)
 ****
 36  39  40 0
 6-311+G(2d,p)
 ****
 1  2  3  4  5  16  17  18  19  20  21  22  23  24 0
 3-21G
 ****
 26  27  29  30  31  37  38  41  42  43  44  45  46  47 0
 3-21G
 ****
 48 0
 3-21G
 ****


