%nproc=1
%NoSave
%Mem=1900MB
#P OB98/GEN NMR

erre ene a

0 1
  C       46.174    -204.639     289.594
  O       45.316    -204.065     290.557
  H       46.784    -203.846     289.149
  H       45.590    -205.122     288.804
  H       46.834    -205.370     290.066
  P       44.253    -205.052     291.247
  C       41.789    -205.111     290.381
  O       43.167    -205.312     290.087
  C       41.492    -203.621     290.499
  O       41.692    -202.953     289.232
  C       40.054    -203.291     290.904
  O       39.808    -203.474     292.289
  C       40.004    -201.828     290.507
  O       40.728    -201.040     291.466
  C       40.730    -201.870     289.145
  N       39.824    -202.070     288.013
  C       40.020    -201.242     286.895
  O       40.917    -200.400     286.885
  N       39.173    -201.370     285.819
  C       38.225    -202.257     285.846
  N       37.415    -202.331     284.756
  C       37.988    -203.151     286.996
  C       38.814    -203.005     288.029
  O       43.465    -204.098     292.260
  O       44.813    -206.288     291.869
  H       41.626    -201.412     291.516
  H       42.683    -204.573     292.632
  H       37.169    -203.863     286.977
  H       38.697    -203.627     288.910
  H       41.300    -200.943     288.978
  H       38.992    -201.426     290.467
  H       39.331    -203.850     290.300
  H       42.215    -203.192     291.209
  H       37.561    -201.667     284.012
  H       41.564    -205.620     291.322
  H       36.560    -202.878     284.744
  H       41.175    -205.540     289.584
  P       38.276    -203.457     292.768
  C       37.339    -201.321     293.927
  O       37.787    -201.934     292.723
  O       38.380    -203.764     294.336
  O       37.383    -204.437     292.060
  H       37.614    -204.294     294.637
  H       37.050    -200.311     293.727
  H       38.130    -201.329     294.647
  H       36.500    -201.862     294.312

 6  7  8  9  10  11  12  13  14  15  16  26  30  31  32  33  35 0
 6-311+G(2d,p)
 ****
 37  38 0
 6-311+G(2d,p)
 ****
 1  2  3  4  5  17  18  19  20  21  22  23  24  25 0
 3-21G
 ****
 27  28  29  34  36  39  40  41  42  43  44  45  46 0
 3-21G
 ****


