%nproc=1
%NoSave
%Mem=1900MB
#P OB98/GEN NMR

erre ene a

0 1
  C      208.970     109.348     262.269
  O      208.621     107.988     262.098
  P      209.810     106.937     261.863
  C      209.405     104.894     263.434
  O      210.033     106.156     263.244
  C      208.665     104.883     264.772
  O      207.688     105.946     264.816
  C      207.885     103.601     265.027
  O      208.738     102.553     265.460
  C      206.890     104.049     266.087
  O      207.480     104.017     267.396
  C      206.600     105.503     265.655
  N      205.309     105.641     264.989
  C      204.258     104.909     265.539
  O      204.400     104.167     266.511
  N      203.051     105.028     264.906
  C      202.806     105.747     263.773
  O      201.713     105.770     263.220
  C      203.960     106.477     263.219
  C      205.139     106.386     263.839
  O      211.113     107.856     261.730
  O      209.630     106.054     260.675
  H      208.122     104.756     267.429
  H      211.729     107.466     261.080
  H      202.272     104.526     265.304
  H      203.802     107.057     262.320
  H      206.003     106.905     263.440
  H      206.607     106.163     266.530
  H      206.003     103.407     266.119
  H      207.337     103.310     264.121
  H      209.395     105.057     265.575
  H      210.162     104.107     263.425
  H      208.710     104.713     262.608
  P      209.220     101.499     264.347
  C      211.680     101.256     265.190
  O      210.797     101.738     264.201
  O      208.574     102.141     263.028
  O      208.783     100.103     264.640
  H      208.540     103.112     263.074
  H      211.337     100.303     265.604
  H      211.762     101.993     265.994
  H      212.667     101.113     264.743
  H      208.083     109.928     262.415
  H      209.485     109.696     261.398
  H      209.606     109.448     263.123

 3  4  5  6  7  8  9  10  11  12  13  23  28  29  30  31  32 0
 6-311+G(2d,p)
 ****
 33  34 0
 6-311+G(2d,p)
 ****
 1  2  14  15  16  17  18  19  20  21  22  24  25  26 0
 3-21G
 ****
 27  35  36  37  38  39  40  41  42  43  44  45 0
 3-21G
 ****


