%nproc=1
%NoSave
%Mem=1900MB
#P OB98/GEN NMR

erre ene a

0 1
  C     -226.053    -143.294    -323.010
  O     -226.795    -144.238    -323.788
  P     -227.025    -145.706    -323.185
  C     -226.991    -146.724    -325.563
  O     -227.701    -146.628    -324.328
  C     -227.871    -147.394    -326.635
  O     -228.972    -146.485    -326.953
  C     -227.172    -147.670    -327.972
  O     -226.506    -148.923    -328.137
  C     -228.350    -147.677    -328.934
  O     -228.983    -148.966    -328.924
  C     -229.300    -146.637    -328.350
  N     -231.949    -142.484    -329.793
  C     -232.309    -143.601    -329.126
  N     -231.541    -144.666    -328.786
  C     -230.277    -144.482    -329.180
  C     -229.754    -143.386    -329.852
  C     -230.649    -142.353    -330.173
  N     -230.277    -141.212    -330.846
  N     -228.396    -143.558    -330.097
  C     -228.126    -144.748    -329.599
  N     -229.208    -145.335    -329.012
  O     -227.682    -145.769    -321.848
  O     -225.534    -146.290    -323.120
  H     -229.799    -148.883    -329.463
  H     -225.445    -146.840    -322.314
  H     -233.359    -143.661    -328.844
  H     -227.143    -145.218    -329.629
  H     -230.353    -146.939    -328.407
  H     -228.043    -147.487    -329.975
  H     -226.481    -146.851    -328.228
  H     -228.301    -148.312    -326.236
  H     -226.086    -147.326    -325.414
  H     -230.990    -140.535    -331.069
  H     -229.334    -141.123    -331.189
  H     -226.666    -145.722    -325.844
  P     -225.143    -149.043    -328.968
  C     -226.003    -150.604    -330.873
  O     -225.216    -150.457    -329.726
  O     -223.896    -148.817    -328.183
  O     -225.369    -147.996    -330.159
  H     -226.062    -148.254    -330.793
  H     -225.760    -151.559    -331.360
  H     -225.800    -149.803    -331.596
  H     -227.066    -150.616    -330.600
  H     -225.985    -142.368    -323.542
  H     -225.069    -143.675    -322.830
  H     -226.549    -143.133    -322.076

 3  4  5  6  7  8  9  10  11  12  22  25  29  30  31  32 0
 6-311+G(2d,p)
 ****
 33  36  37 0
 6-311+G(2d,p)
 ****
 1  2  13  14  15  16  17  18  19  20  21  23  24  26 0
 3-21G
 ****
 27  28  34  35  38  39  40  41  42  43  44  45  46  47  48 0
 3-21G
 ****


