%nproc=1
%NoSave
%Mem=1900MB
#P OB98/GEN NMR

erre ene a

0 1
  C        9.149    -203.437    -187.815
  O        8.949    -204.671    -187.151
  H       10.217    -203.207    -187.814
  H        8.613    -202.640    -187.295
  H        8.803    -203.505    -188.851
  P        7.439    -205.208    -187.083
  C        7.282    -205.760    -189.627
  O        7.288    -206.251    -188.294
  C        8.187    -206.626    -190.513
  O        9.554    -206.540    -190.008
  C        7.802    -208.115    -190.517
  O        8.167    -208.677    -191.792
  C        8.723    -208.675    -189.445
  O        8.806    -210.077    -189.547
  C        9.993    -207.892    -189.759
  N       12.306    -210.906    -186.355
  C       11.444    -211.175    -187.361
  N       10.877    -210.315    -188.233
  C       11.307    -209.060    -188.004
  C       12.178    -208.633    -187.016
  C       12.684    -209.618    -186.156
  N       13.544    -209.350    -185.114
  N       12.352    -207.260    -187.085
  C       11.606    -206.873    -188.097
  N       10.957    -207.926    -188.683
  O        6.579    -203.946    -187.561
  O        6.995    -205.720    -185.755
  H        7.919    -210.487    -189.477
  H        6.299    -203.423    -186.784
  H       11.170    -212.221    -187.483
  H       11.487    -205.855    -188.444
  H       10.495    -208.257    -190.665
  H        8.350    -208.439    -188.444
  H        6.741    -208.290    -190.330
  H        8.199    -206.213    -191.531
  H        7.644    -204.728    -189.621
  H        6.262    -205.784    -190.020
  H       13.837    -210.113    -184.528
  H       13.809    -208.393    -184.931
  P        7.118    -209.621    -192.558
  C        5.725    -207.885    -193.917
  O        6.662    -208.950    -193.942
  O        5.801    -209.459    -191.651
  O        7.501    -211.064    -192.651
  H        5.406    -210.336    -191.487
  H        5.532    -207.556    -194.917
  H        6.123    -207.073    -193.345
  H        4.813    -208.223    -193.471

 6  7  8  9  10  11  12  13  14  15  25  28  32  33  34  35 0
 6-311+G(2d,p)
 ****
 36  37  40 0
 6-311+G(2d,p)
 ****
 1  2  3  4  5  16  17  18  19  20  21  22  23  24 0
 3-21G
 ****
 26  27  29  30  31  38  39 41  42  43  44  45  46  47  48 0
 3-21G
 ****


