%nproc=1
%NoSave
%Mem=1900MB
#P OB98/GEN NMR

erre ene a

0 1
  C     -249.571     167.135     550.832
  O     -250.532     166.681     551.771
  P     -251.856     167.589     551.933
  C     -253.077     166.225     550.060
  O     -253.084     166.690     551.395
  C     -254.519     166.013     549.577
  O     -255.119     164.909     550.293
  C     -255.439     167.225     549.812
  O     -255.275     168.179     548.792
  C     -256.822     166.556     549.808
  O     -257.273     166.324     548.472
  C     -256.517     165.230     550.520
  N     -260.113     165.709     554.094
  C     -260.192     165.898     552.721
  N     -261.391     166.224     552.214
  N     -259.165     165.777     551.899
  C     -258.012     165.468     552.570
  C     -257.793     165.266     553.898
  C     -258.956     165.342     554.788
  O     -258.955     165.083     555.970
  N     -256.493     164.988     554.172
  C     -255.913     164.987     552.984
  N     -256.789     165.265     551.972
  O     -251.678     168.708     550.798
  O     -252.061     168.189     553.303
  H     -256.714     165.608     548.056
  H     -251.322     169.553     551.192
  H     -260.943     165.796     554.664
  H     -254.852     164.777     552.814
  H     -257.128     164.402     550.122
  H     -257.573     167.181     550.306
  H     -262.235     166.350     552.796
  H     -255.250     167.658     550.794
  H     -261.478     166.388     551.231
  H     -254.499     165.749     548.506
  H     -252.559     165.255     550.015
  H     -252.568     166.945     549.418
  P     -255.749     169.676     549.079
  C     -253.502     170.754     548.304
  O     -254.902     170.659     548.120
  O     -255.149     169.984     550.542
  O     -257.239     169.877     549.050
  H     -255.791     170.537     551.052
  H     -253.054     170.974     547.356
  H     -253.070     169.824     548.698
  H     -253.287     171.563     549.008
  H     -248.744     166.457     550.812
  H     -249.228     168.108     551.115
  H     -250.016     167.182     549.860

 3  4  5  6  7  8  9  10  11  12  23  26  30  31 0
 6-311+G(2d,p)
 ****
 33  35  36  37  38 0
 6-311+G(2d,p)
 ****
 1  2  13  14  15  16  17  18  19  20  21  22  24  25 0
 3-21G
 ****
 27  28  29  32  34  39  40  41  42  43  44  45  46  47  48  49 0
 3-21G
 ****


