%nproc=1
%NoSave
%Mem=1900MB
#P OB98/GEN NMR

erre ene a

0 1
  C     -213.451    -102.820     115.623
  O     -213.359    -104.112     116.192
  H     -214.254    -102.822     114.879
  H     -212.516    -102.546     115.128
  H     -213.694    -102.084     116.395
  P     -212.153    -104.429     117.200
  C     -212.805    -104.510     119.692
  O     -212.798    -105.204     118.451
  C     -213.794    -105.154     120.668
  O     -215.106    -105.183     120.044
  C     -213.421    -106.589     121.063
  O     -213.761    -106.781     122.440
  C     -214.321    -107.423     120.172
  O     -214.540    -108.713     120.711
  C     -215.572    -106.548     120.059
  N     -216.343    -106.875     118.856
  C     -217.427    -107.744     119.027
  O     -217.706    -108.177     120.149
  N     -218.132    -108.151     117.924
  C     -217.755    -107.776     116.743
  N     -218.474    -108.248     115.688
  C     -216.598    -106.883     116.509
  C     -215.945    -106.474     117.602
  O     -211.280    -103.273     117.566
  O     -211.325    -105.577     116.449
  H     -215.182    -108.650     121.451
  H     -210.631    -105.176     115.892
  H     -216.320    -106.602     115.504
  H     -215.078    -105.825     117.526
  H     -216.219    -106.675     120.936
  H     -213.851    -107.544     119.186
  H     -212.363    -106.815     120.905
  H     -213.880    -104.512     121.556
  H     -219.240    -108.877     115.894
  H     -213.104    -103.475     119.499
  H     -218.248    -108.056     114.721
  H     -211.799    -104.511     120.125
  P     -212.641    -106.651     123.585
  C     -212.439    -104.146     124.083
  O     -212.992    -105.387     124.517
  O     -211.233    -106.687     123.088
  O     -212.931    -107.903     124.547
  H     -212.094    -108.197     124.958
  H     -212.726    -103.371     124.762
  H     -212.804    -103.916     123.104
  H     -211.372    -104.221     124.057

 6  7  8  9  10  11  12  13  14  15  16  26  30  31  32  33  35 0
 6-311+G(2d,p)
 ****
 37  38 0
 6-311+G(2d,p)
 ****
 1  2  3  4  5  17  18  19  20  21  22  23  24  25 0
 3-21G
 ****
 27  28  29  34  36  39  40  41  42  43  44  45  46 0
 3-21G
 ****


