%nproc=1
%NoSave
%Mem=1900MB
#P OB98/GEN NMR

erre ene a

0 1
  C      -74.601     147.862     102.611
  O      -75.677     148.685     103.020
  P      -75.459     150.259     103.240
  C      -74.127     151.682     104.930
  O      -74.644     150.390     104.618
  C      -74.034     151.879     106.444
  O      -75.340     151.778     107.049
  C      -73.168     150.847     107.154
  O      -71.793     151.136     106.967
  C      -73.658     150.988     108.589
  O      -73.018     152.091     109.251
  C      -75.163     151.270     108.391
  N      -75.987     150.093     108.636
  C      -75.918     149.557     109.929
  O      -75.171     150.056     110.770
  N      -76.662     148.437     110.219
  C      -77.392     147.892     109.292
  N      -78.097     146.779     109.638
  C      -77.466     148.408     107.911
  C      -76.746     149.498     107.654
  O      -76.694     151.093     103.143
  O      -74.356     150.630     102.139
  H      -73.162     152.871     108.681
  H      -74.744     150.646     101.228
  H      -78.079     147.913     107.172
  H      -76.740     149.942     106.667
  H      -75.497     152.068     109.068
  H      -73.450     150.092     109.184
  H      -73.408     149.842     106.781
  H      -73.647     152.890     106.633
  H      -77.994     146.441     110.587
  H      -74.802     152.433     104.510
  H      -78.664     146.258     108.988
  H      -73.143     151.801     104.464
  P      -70.768     149.955     106.632
  C      -69.986     147.804     107.794
  O      -70.579     149.076     107.958
  O      -69.503     150.374     105.962
  O      -71.617     148.982     105.678
  H      -71.058     148.707     104.925
  H      -69.613     147.462     108.762
  H      -69.152     147.848     107.087
  H      -70.735     147.098     107.430
  H      -74.940     146.851     102.519
  H      -73.818     147.911     103.339
  H      -74.231     148.202     101.666

 3  4  5  6  7  8  9  10  11  12  13  23  27  28  29  30  32 0
 6-311+G(2d,p)
 ****
 34  35 0
 6-311+G(2d,p)
 ****
 1  2  14  15  16  17  18  19  20  21  22  24  25  26 0
 3-21G
 ****
 31  33  36  37  38  39  40  41  42  43  44  45  46 0
 3-21G
 ****


