%nproc=1
%NoSave
%Mem=1900MB
#P OB98/GEN NMR

erre ene a

0 1
  C     -321.620      59.623      17.863
  O     -322.062      58.951      19.034
  P     -320.939      58.290      19.976
  C     -319.642      56.042      19.953
  O     -320.702      56.813      19.397
  C     -319.834      54.565      19.642
  O     -320.957      54.050      20.386
  C     -320.145      54.263      18.183
  O     -318.971      54.241      17.383
  C     -320.753      52.867      18.295
  O     -319.705      51.887      18.383
  C     -321.518      52.954      19.627
  N     -326.082      50.772      19.337
  C     -324.837      50.200      19.525
  N     -324.810      48.859      19.682
  N     -323.723      50.880      19.553
  C     -323.908      52.218      19.417
  C     -325.091      52.902      19.228
  C     -326.313      52.130      19.148
  O     -327.436      52.574      18.916
  N     -324.875      54.255      19.151
  C     -323.577      54.394      19.338
  N     -322.942      53.183      19.472
  O     -321.725      58.028      21.347
  O     -319.719      59.122      20.187
  H     -319.267      52.009      19.245
  H     -321.093      58.012      22.093
  H     -326.908      50.203      19.347
  H     -323.061      55.342      19.377
  H     -321.376      52.043      20.225
  H     -321.373      52.600      17.437
  H     -325.642      48.297      19.801
  H     -320.892      54.952      17.784
  H     -323.909      48.425      19.856
  H     -318.934      54.025      19.965
  H     -319.625      56.177      21.038
  H     -318.692      56.402      19.544
  P     -319.060      54.976      15.958
  C     -320.375      54.421      13.786
  O     -319.813      53.946      14.999
  O     -317.542      54.952      15.442
  O     -319.618      56.358      16.016
  H     -317.387      55.691      14.818
  H     -319.755      55.204      13.340
  H     -321.377      54.820      13.984
  H     -320.454      53.593      13.083
  H     -322.465      60.012      17.334
  H     -321.092      58.936      17.235
  H     -320.970      60.428      18.137

 3  4  5  6  7  8  9  10  11  12  23  26  30  31  33  0
 6-311+G(2d,p)
 ****
 35  36  37  38 0
 6-311+G(2d,p)
 ****
 1  2  13  14  15  16  17  18  19  20  21  22  24  25  27  28  29 0
 3-21G
 ****
 32  34  39  40  41  42  43  44  45  46  47  48  49 0
 3-21G
 ****


