%nproc=1
%NoSave
%Mem=1900MB
#P OB98/GEN NMR

erre ene a

0 1
  C      -97.998    -503.572    -528.395
  O      -99.280    -504.208    -528.426
  P     -100.134    -504.077    -529.780
  C      -98.994    -505.833    -531.354
  O     -100.065    -505.517    -530.478
  C      -99.491    -506.743    -532.482
  O      -98.527    -506.793    -533.559
  C      -99.708    -508.189    -532.060
  O     -100.887    -508.332    -531.284
  C      -99.744    -508.881    -533.423
  O     -101.044    -508.729    -534.018
  C      -98.703    -508.070    -534.217
  N      -97.433    -508.772    -534.371
  C      -97.449    -509.893    -535.189
  O      -98.470    -510.303    -535.743
  N      -96.258    -510.544    -535.343
  C      -95.081    -510.207    -534.740
  O      -94.037    -510.827    -534.924
  C      -95.131    -509.039    -533.849
  C      -96.285    -508.383    -533.703
  O      -99.166    -503.158    -530.668
  O     -101.502    -503.524    -529.558
  H      -98.222    -503.344    -530.514
  H     -101.684    -509.088    -533.372
  H      -96.244    -511.354    -535.943
  H      -94.219    -508.756    -533.337
  H      -96.342    -507.522    -533.046
  H      -99.083    -507.845    -535.221
  H      -99.539    -509.951    -533.355
  H      -98.840    -508.544    -531.490
  H     -100.425    -506.319    -532.873
  H      -98.198    -506.350    -530.804
  H      -98.575    -504.906    -531.753
  P     -100.724    -509.044    -529.850
  C     -101.644    -507.175    -528.271
  O     -101.852    -508.410    -528.897
  O      -99.364    -508.377    -529.327
  O     -100.698    -510.535    -529.917
  H      -99.324    -507.422    -529.483
  H     -102.609    -506.756    -527.970
  H     -101.144    -506.462    -528.935
  H     -101.031    -507.315    -527.368
  H      -97.541    -503.737    -527.442
  H      -98.117    -502.521    -528.556
  H      -97.378    -503.982    -529.164

 3  4  5  6  7  8  9  10  11  12  13  24  28  29  30  31  32 0
 6-311+G(2d,p)
 ****
 33  34 0
 6-311+G(2d,p)
 ****
 1  2  14  15  16  17  18  19  20  21  22  23  25  26  27 0
 3-21G
 ****
 35  36  37  38  39  40  41  42  43  44  45 0
 3-21G
 ****


