%nproc=1
%NoSave
%Mem=1900MB
#P OB98/GEN NMR

erre ene a

0 1
  C       19.547     -81.605      26.931
  O       18.192     -81.270      26.603
  P       17.651     -81.151      25.096
  C       17.807     -82.769      23.080
  O       17.571     -82.631      24.477
  C       17.462     -84.184      22.608
  O       18.315     -85.153      23.261
  C       16.052     -84.652      22.934
  O       15.074     -84.034      22.117
  C       16.182     -86.159      22.726
  O       16.017     -86.513      21.346
  C       17.635     -86.426      23.167
  N       17.722     -87.159      24.419
  C       17.892     -88.543      24.325
  O       17.880     -89.099      23.227
  N       18.055     -89.264      25.482
  C       17.948     -88.673      26.631
  N       18.137     -89.434      27.743
  C       17.633     -87.239      26.774
  C       17.537     -86.549      25.639
  O       18.419     -80.189      24.251
  O       16.119     -80.707      25.230
  H       15.848     -80.226      24.426
  H       16.548     -85.878      20.826
  H       17.512     -86.794      27.751
  H       17.322     -85.486      25.654
  H       18.169     -86.982      22.388
  H       15.434     -86.720      23.295
  H       15.838     -84.448      23.991
  H       17.641     -84.234      21.525
  H       18.361     -90.412      27.609
  H       18.870     -82.581      22.889
  H       18.098     -89.068      28.683
  H       17.219     -82.020      22.540
  P       13.667     -83.689      22.803
  C       13.580     -82.540      25.129
  O       13.885     -82.418      23.753
  O       13.440     -84.899      23.828
  O       12.525     -83.568      21.847
  H       12.498     -85.152      23.833
  H       14.202     -81.837      25.689
  H       13.767     -83.552      25.497
  H       12.529     -82.284      25.287
  H       19.663     -81.622      27.995
  H       20.207     -80.874      26.513
  H       19.783     -82.569      26.531

 3  4  5  6  7  8  9  10  11  12  13  24  27  28  29  30  32 0
 6-311+G(2d,p)
 ****
 34  35 0
 6-311+G(2d,p)
 ****
 1  2  14  15  16  17  18  19  20  21  22  23  25  26 0
 3-21G
 ****
 31  33  36  37  38  39  40  41  42  43  44  45  46 0
 3-21G
 ****


