%nproc=1
%NoSave
%Mem=1900MB
#P OB98/GEN NMR

erre ene a

0 1
  C      200.891     -38.413     719.404
  O      202.119     -38.626     718.741
  H      201.023     -37.616     720.141
  H      200.587     -39.324     719.923
  H      200.109     -38.110     718.699
  P      202.142     -39.527     717.418
  C      202.063     -37.582     715.722
  O      201.367     -38.692     716.284
  C      202.368     -37.832     714.236
  O      201.127     -38.204     713.562
  C      202.939     -36.603     713.504
  O      203.806     -37.092     712.471
  C      201.690     -35.993     712.899
  O      202.004     -35.091     711.865
  C      200.922     -37.260     712.490
  N      199.508     -36.993     712.254
  C      199.149     -36.644     710.959
  O      199.965     -36.506     710.044
  N      197.820     -36.391     710.745
  C      196.843     -36.406     711.699
  O      195.672     -36.137     711.460
  C      197.283     -36.744     713.062
  C      198.575     -37.029     713.276
  O      201.671     -40.936     717.584
  O      203.663     -39.463     716.918
  H      201.208     -34.591     711.590
  H      203.898     -40.285     716.457
  H      197.544     -36.141     709.807
  H      196.540     -36.761     713.843
  H      198.931     -37.283     714.263
  H      201.349     -37.685     711.573
  H      201.125     -35.435     713.656
  H      203.474     -35.921     714.166
  H      203.041     -38.690     714.155
  H      202.998     -37.454     716.271
  H      201.453     -36.677     715.831
  P      205.392     -36.806     712.480
  C      206.020     -38.568     714.263
  O      205.965     -37.176     713.938
  O      205.773     -35.445     711.997
  O      206.009     -37.946     711.536
  H      206.841     -37.618     711.131
  H      206.415     -38.688     715.250
  H      206.651     -39.073     713.562
  H      205.035     -38.983     714.220

 6  7  8  9  10  11  12  13  14  15  16  26  31  32  33  34  35 0
 6-311+G(2d,p)
 ****
 36  37 0
 6-311+G(2d,p)
 ****
 1  2  3  4  5  17  18  19  20  21  22  23  24  25 0
 3-21G
 ****
 27  28  29  30  38  39  40  41  42  43  44  45 0
 3-21G
 ****


