%nproc=1
%NoSave
%Mem=1900MB
#P OB98/GEN NMR

erre ene a

0 1
  C     -120.286     -28.092      20.964
  O     -119.258     -27.119      20.929
  P     -118.958     -26.401      19.528
  C     -116.582     -27.455      19.733
  O     -117.367     -26.330      19.361
  C     -115.106     -27.169      19.452
  O     -114.885     -27.008      18.034
  C     -114.601     -25.884      20.093
  O     -114.331     -26.064      21.473
  C     -113.358     -25.593      19.264
  O     -112.231     -26.342      19.745
  C     -113.786     -26.087      17.867
  N     -114.127     -24.993      16.965
  C     -113.095     -24.528      16.154
  O     -111.952     -24.985      16.199
  N     -113.410     -23.492      15.319
  C     -114.613     -22.852      15.253
  O     -114.818     -21.891      14.522
  C     -115.658     -23.366      16.154
  C     -115.369     -24.392      16.959
  O     -119.384     -24.879      19.778
  O     -119.675     -26.993      18.362
  H     -112.476     -27.286      19.679
  H     -119.770     -24.504      18.963
  H     -112.684     -23.158      14.706
  H     -116.625     -22.881      16.130
  H     -116.121     -24.776      17.639
  H     -112.975     -26.669      17.409
  H     -113.078     -24.536      19.297
  H     -115.330     -25.078      19.940
  H     -114.515     -28.028      19.793
  H     -116.905     -28.326      19.158
  H     -116.738     -27.665      20.795
  P     -115.008     -25.022      22.490
  C     -112.945     -24.841      24.082
  O     -114.274     -25.272      23.891
  O     -116.463     -25.671      22.656
  O     -115.004     -23.621      21.978
  H     -116.441     -26.640      22.593
  H     -112.749     -23.903      23.557
  H     -112.259     -25.611      23.719
  H     -112.774     -24.690      25.150
  H     -120.373     -28.483      21.956
  H     -120.049     -28.886      20.287
  H     -121.213     -27.642      20.675

 3  4  5  6  7  8  9  10  11  12  13  23  28  29  30  31  32 0
 6-311+G(2d,p)
 ****
 33  34 0
 6-311+G(2d,p)
 ****
 1  2  14  15  16  17  18  19  20  21  22  24  25  26 0
 3-21G
 ****
 27  35  36  37  38  39  40  41  42  43  44  45 0
 3-21G
 ****


