%nproc=1
%NoSave
%Mem=1900MB
#P OB98/GEN NMR

erre ene a

0 1
  C      119.603      87.248      26.388
  O      119.504      85.939      26.900
  H      118.699      87.464      25.811
  H      120.464      87.333      25.720
  H      119.683      87.976      27.198
  P      120.721      85.337      27.758
  C      120.671      83.089      26.520
  O      120.484      83.744      27.768
  C      120.135      81.658      26.565
  O      118.686      81.679      26.457
  C      120.669      80.763      25.435
  O      121.097      79.510      25.974
  C      119.454      80.548      24.546
  O      119.535      79.355      23.771
  C      118.327      80.595      25.582
  N      117.022      80.788      24.963
  C      116.319      79.626      24.631
  O      116.803      78.519      24.871
  N      115.113      79.743      23.991
  C      114.670      80.918      23.664
  N      113.482      80.962      23.005
  C      115.394      82.169      23.970
  C      116.550      82.033      24.618
  O      120.902      85.957      29.103
  O      122.004      85.495      26.817
  H      120.170      79.504      23.036
  H      122.815      85.485      27.377
  H      114.984      83.122      23.672
  H      117.152      82.894      24.884
  H      118.300      79.672      26.175
  H      119.360      81.395      23.854
  H      121.494      81.213      24.884
  H      120.364      81.232      27.550
  H      113.024      80.080      22.809
  H      121.741      83.090      26.282
  H      113.051      81.814      22.679
  H      120.131      83.649      25.752
  P      122.384      78.844      25.283
  C      121.120      76.581      25.412
  O      122.350      77.270      25.588
  O      123.600      79.385      26.171
  O      122.545      79.213      23.846
  H      124.129      80.023      25.654
  H      121.253      75.547      25.652
  H      120.802      76.673      24.394
  H      120.379      77.004      26.057

 6  7  8  9  10  11  12  13  14  15  16  26  30  31  32  33  35 0
 6-311+G(2d,p)
 ****
 37  38 0
 6-311+G(2d,p)
 ****
 1  2  3  4  5  17  18  19  20  21  22  23  24  25 0
 3-21G
 ****
 27  28  29  34  36  39  40  41  42  43  44  45  46 0
 3-21G
 ****


