%nproc=1
%NoSave
%Mem=1900MB
#P OB98/GEN NMR

erre ene a

0 1
  C      459.691    -217.570     198.232
  O      459.572    -216.616     199.299
  P      460.874    -216.240     200.164
  C      460.376    -213.689     200.462
  O      460.539    -214.962     201.070
  C      460.133    -212.616     201.529
  O      458.886    -212.864     202.219
  C      461.191    -212.572     202.625
  O      462.380    -211.940     202.188
  C      460.462    -211.801     203.716
  O      460.538    -210.384     203.485
  C      459.011    -212.302     203.541
  N      458.622    -213.264     204.571
  C      458.581    -212.790     205.878
  O      458.906    -211.647     206.192
  N      458.180    -213.692     206.824
  C      457.893    -215.011     206.607
  O      457.558    -215.777     207.505
  C      458.033    -215.473     205.219
  C      458.393    -214.593     204.283
  O      461.840    -215.611     199.050
  O      461.539    -217.382     200.860
  H      461.479    -210.132     203.600
  H      462.772    -215.747     199.312
  H      458.113    -213.365     207.777
  H      457.838    -216.516     205.007
  H      458.499    -214.919     203.251
  H      458.314    -211.459     203.576
  H      460.877    -211.985     204.709
  H      461.401    -213.586     202.983
  H      460.058    -211.642     201.023
  H      459.519    -213.719     199.786
  H      461.275    -213.455     199.881
  P      463.747    -212.766     202.369
  C      464.539    -211.441     200.255
  O      464.847    -211.949     201.536
  O      463.437    -214.064     201.486
  O      464.075    -213.048     203.798
  H      462.876    -213.860     200.717
  H      463.490    -211.145     200.183
  H      464.758    -212.206     199.503
  H      465.167    -210.565     200.066
  H      458.738    -217.703     197.764
  H      460.028    -218.506     198.626
  H      460.396    -217.212     197.511

 3  4  5  6  7  8  9  10  11  12  13  23  28  29  30  31  32 0
 6-311+G(2d,p)
 ****
 33  34 0
 6-311+G(2d,p)
 ****
 1  2  14  15  16  17  18  19  20  21  22  24  25  26 0
 3-21G
 ****
 27  35  36  37  38  39  40  41  42  43  44  45 0
 3-21G
 ****


