%nproc=1
%NoSave
%Mem=1900MB
#P OB98/GEN NMR

erre ene a

0 1
  C      -93.347     111.351    -221.888
  O      -93.022     112.727    -221.926
  H      -92.654     110.827    -221.220
  H      -94.364     111.239    -221.503
  H      -93.295     110.915    -222.889
  P      -91.633     113.123    -222.625
  C      -90.315     113.279    -220.389
  O      -90.479     112.606    -221.629
  C      -88.873     113.141    -219.896
  O      -88.760     113.763    -218.588
  C      -88.404     111.689    -219.764
  O      -87.037     111.602    -220.175
  C      -88.509     111.419    -218.272
  O      -87.635     110.377    -217.846
  C      -88.177     112.791    -217.691
  N      -86.962     113.421    -212.767
  C      -86.206     113.391    -213.891
  N      -86.616     113.220    -215.165
  C      -87.954     113.132    -215.230
  C      -88.860     113.139    -214.175
  C      -88.307     113.287    -212.890
  N      -89.060     113.285    -211.738
  N      -90.150     112.983    -214.639
  C      -90.030     112.873    -215.953
  N      -88.722     112.952    -216.352
  O      -91.599     114.721    -222.439
  O      -91.485     112.724    -224.050
  H      -86.711     110.670    -218.002
  H      -92.166     115.137    -223.121
  H      -85.138     113.508    -213.743
  H      -90.850     112.734    -216.644
  H      -87.103     112.971    -217.627
  H      -89.539     111.123    -218.019
  H      -89.007     110.992    -220.349
  H      -88.215     113.708    -220.571
  H      -90.996     112.841    -219.649
  H      -88.584     113.329    -210.852
  H      -90.061     113.125    -211.804
  H      -90.562     114.342    -220.517
  P      -86.767     110.982    -221.635
  C      -87.430     108.555    -221.029
  O      -87.699     109.695    -221.829
  O      -85.288     110.369    -221.507
  O      -86.840     111.998    -222.736
  H      -84.735     110.676    -222.252
  H      -88.128     107.780    -221.267
  H      -87.524     108.815    -219.995
  H      -86.435     108.211    -221.221

 6  7  8  9  10  11  12  13  14  15  25  28  32  33  34  35 0
 6-311+G(2d,p)
 ****
 36  39  40 0
 6-311+G(2d,p)
 ****
 1  2  3  4  5  16  17  18  19  20  21  22  23  24 0
 3-21G
 ****
 26  27  29  30  31  37  38  41  42  43  44  45  46  47 0
 3-21G
 ****
 48 0
 3-21G
 ****


