%nproc=1
%NoSave
%Mem=1900MB
#P OB98/GEN NMR

erre ene a

0 1
  C      140.761     512.114    -232.653
  O      139.374     512.110    -232.933
  H      141.292     511.463    -233.358
  H      141.140     513.138    -232.769
  H      140.941     511.789    -231.625
  P      138.619     510.696    -232.813
  C      137.805     509.422    -234.926
  O      138.913     509.922    -234.185
  C      137.347     510.481    -235.940
  O      138.439     510.841    -236.810
  C      136.227     510.018    -236.855
  O      134.943     510.115    -236.245
  C      136.359     511.021    -237.994
  O      135.796     512.284    -237.594
  C      137.886     511.143    -238.119
  N      139.910     510.756    -242.818
  C      139.406     511.803    -242.136
  N      138.887     511.831    -240.892
  C      138.909     510.597    -240.343
  C      139.372     509.438    -240.922
  C      139.912     509.535    -242.220
  N      140.395     508.465    -242.928
  N      139.197     508.354    -240.064
  C      138.661     508.879    -238.988
  N      138.455     510.223    -239.104
  O      137.068     511.091    -232.939
  O      138.908     509.909    -231.574
  H      134.833     512.150    -237.511
  H      136.511     510.382    -232.566
  H      139.431     512.760    -242.652
  H      138.401     508.328    -238.088
  H      138.210     512.158    -238.386
  H      135.846     510.718    -238.901
  H      136.403     509.011    -237.251
  H      137.057     511.375    -235.376
  H      136.985     509.204    -234.237
  H      140.585     508.607    -243.911
  H      140.263     507.538    -242.557
  H      138.107     508.504    -235.452
  P      133.888     508.952    -236.556
  C      132.109     509.529    -238.371
  O      133.454     509.152    -238.088
  O      132.593     509.410    -235.735
  O      134.339     507.570    -236.188
  H      132.034     508.644    -235.499
  H      131.980     509.621    -239.429
  H      131.895     510.467    -237.902
  H      131.442     508.782    -237.994

 6  7  8  9  10  11  12  13  14  15  25  28  32  33  34  35 0
 6-311+G(2d,p)
 ****
 36  39  40 0
 6-311+G(2d,p)
 ****
 1  2  3  4  5  16  17  18  19  20  21  22  23  24 0
 3-21G
 ****
 26  27  29  30  31  37  38  41  42  43  44  45  46  47 0
 3-21G
 ****
 48 0
 3-21G
 ****


