%nproc=1
%NoSave
%Mem=1900MB
#P OB98/GEN NMR

erre ene a

0 1
  C      -23.556      64.855      43.808
  O      -23.304      64.571      45.177
  P      -24.200      65.312      46.283
  C      -26.739      65.491      46.775
  O      -25.733      65.141      45.835
  C      -27.842      66.322      46.119
  O      -27.311      67.633      45.786
  C      -28.409      65.721      44.830
  O      -29.794      66.082      44.765
  C      -27.653      66.463      43.744
  O      -28.328      66.422      42.490
  C      -27.553      67.848      44.379
  N      -26.238      70.934      40.522
  C      -27.403      70.325      40.827
  N      -27.676      69.518      41.873
  C      -26.589      69.361      42.647
  C      -25.326      69.890      42.443
  C      -25.165      70.719      41.320
  N      -23.983      71.349      41.012
  N      -24.463      69.481      43.438
  C      -25.190      68.719      44.228
  N      -26.487      68.637      43.804
  O      -23.897      66.857      46.002
  O      -23.897      64.946      47.695
  H      -28.287      65.509      42.150
  H      -23.385      67.237      46.743
  H      -28.227      70.516      40.145
  H      -24.829      68.207      45.109
  H      -28.487      68.416      44.280
  H      -26.663      66.014      43.610
  H      -28.296      64.635      44.755
  H      -28.641      66.476      46.855
  H      -26.283      66.083      47.573
  H      -23.984      72.032      40.273
  H      -23.236      71.348      41.699
  H      -27.161      64.582      47.215
  P      -30.781      65.052      44.036
  C      -31.559      62.626      44.521
  O      -30.616      63.648      44.785
  O      -30.082      64.812      42.616
  O      -32.180      65.552      43.883
  H      -30.753      64.579      41.949
  H      -31.055      61.658      44.581
  H      -32.008      62.731      43.529
  H      -32.349      62.663      45.276
  H      -22.884      64.289      43.197
  H      -23.409      65.899      43.627
  H      -24.565      64.590      43.569

 3  4  5  6  7  8  9  10  11  12  22  25  29  30  31  32 0
 6-311+G(2d,p)
 ****
 33  36  37 0
 6-311+G(2d,p)
 ****
 1  2  13  14  15  16  17  18  19  20  21  23  24  26 0
 3-21G
 ****
 27  28  34  35  38  39  40  41  42  43  44  45  46  47  48 0
 3-21G
 ****


