%nproc=1
%NoSave
%Mem=1900MB
#P OB98/GEN NMR

erre ene a

0 1
  C      -59.662     256.266    -116.644
  O      -59.777     255.679    -117.926
  H      -60.497     256.957    -116.499
  H      -58.727     256.827    -116.580
  H      -59.696     255.503    -115.862
  P      -58.854     254.399    -118.222
  C      -56.939     255.961    -119.016
  O      -57.333     254.907    -118.149
  C      -56.337     255.392    -120.297
  O      -55.870     256.459    -121.151
  C      -55.144     254.466    -120.076
  O      -55.560     253.143    -119.771
  C      -54.482     254.528    -121.443
  O      -55.214     253.703    -122.374
  C      -54.654     256.008    -121.813
  N      -50.268     258.118    -123.245
  C      -51.089     257.239    -123.920
  N      -50.679     256.859    -125.150
  N      -52.210     256.764    -123.437
  C      -52.481     257.212    -122.186
  C      -51.742     258.081    -121.412
  C      -50.516     258.605    -121.967
  O      -49.759     259.398    -121.412
  N      -52.336     258.299    -120.196
  C      -53.419     257.548    -120.225
  N      -53.552     256.867    -121.410
  O      -59.096     254.143    -119.785
  O      -59.175     253.186    -117.417
  H      -54.744     253.749    -123.227
  H      -59.713     253.393    -119.891
  H      -49.412     258.444    -123.659
  H      -54.139     257.470    -119.423
  H      -54.793     256.155    -122.891
  H      -53.455     254.160    -121.431
  H      -49.819     257.166    -125.575
  H      -54.459     254.863    -119.317
  H      -51.269     256.215    -125.667
  H      -57.138     254.869    -120.839
  H      -56.196     256.583    -118.508
  H      -57.816     256.571    -119.253
  P      -54.584     252.225    -118.887
  C      -54.939     250.144    -120.395
  O      -54.013     251.081    -119.858
  O      -55.606     251.437    -117.940
  O      -53.565     252.964    -118.093
  H      -55.501     251.737    -117.016
  H      -54.420     249.447    -121.019
  H      -55.675     250.662    -120.974
  H      -55.419     249.619    -119.596

 6  7  8  9  10  11  12  13  14  15  26  29  33  34 0
 6-311+G(2d,p)
 ****
 36  38  39  40  41 0
 6-311+G(2d,p)
 ****
 1  2  3  4  5  16  17  18  19  20  21  22  23  24  25 0
 3-21G
 ****
 27  28  30  31  32  35  37  42  43  44  45  46  47 0
 3-21G
 ****
 48  49 0
 3-21G
 ****


