%nproc=1
%NoSave
%Mem=1900MB
#P OB98/GEN NMR

erre ene a

0 1
  C     -219.730     125.710      58.841
  O     -219.694     125.691      57.427
  H     -219.651     124.685      59.209
  H     -220.675     126.139      59.184
  H     -218.892     126.294      59.234
  P     -219.757     127.114      56.692
  C     -222.292     126.698      56.242
  O     -221.294     127.572      56.752
  C     -223.628     127.439      56.116
  O     -223.938     128.060      57.399
  C     -223.614     128.561      55.065
  O     -224.940     128.698      54.526
  C     -223.293     129.777      55.916
  O     -223.601     130.962      55.221
  C     -224.142     129.465      57.143
  N     -224.554     134.050      59.334
  C     -225.100     133.534      58.214
  N     -224.949     132.294      57.701
  C     -224.153     131.553      58.490
  C     -223.521     131.940      59.658
  C     -223.742     133.262      60.079
  N     -223.168     133.802      61.207
  N     -222.763     130.901      60.167
  C     -222.943     129.904      59.324
  N     -223.776     130.252      58.299
  O     -219.531     126.740      55.152
  O     -218.780     128.133      57.171
  H     -223.195     131.741      55.654
  H     -218.584     126.805      54.930
  H     -225.749     134.203      57.654
  H     -222.493     128.924      59.400
  H     -225.212     129.623      56.962
  H     -222.230     129.812      56.168
  H     -222.904     128.387      54.253
  H     -224.424     126.712      55.916
  H     -222.396     125.852      56.927
  H     -221.985     126.333      55.257
  H     -223.357     134.767      61.425
  H     -222.533     133.238      61.755
  P     -225.311     127.935      53.162
  C     -226.010     130.096      51.876
  O     -225.196     128.934      51.912
  O     -226.899     127.750      53.303
  O     -224.656     126.606      52.973
  H     -227.147     126.839      53.060
  H     -225.808     130.646      50.980
  H     -225.795     130.709      52.727
  H     -227.041     129.810      51.894

 6  7  8  9  10  11  12  13  14  15  25  28  32  33  34  35 0
 6-311+G(2d,p)
 ****
 36  37  40 0
 6-311+G(2d,p)
 ****
 1  2  3  4  5  16  17  18  19  20  21  22  23  24 0
 3-21G
 ****
 26  27  29  30  31  38  39 41  42  43  44  45  46  47  48 0
 3-21G
 ****


