%nproc=1
%NoSave
%Mem=1900MB
#P OB98/GEN NMR

erre ene a

0 1
  C      -36.562      31.104      -6.754
  O      -35.536      30.136      -6.867
  P      -35.574      28.799      -5.991
  C      -34.258      30.149      -4.258
  O      -34.387      28.894      -4.912
  C      -33.883      29.972      -2.787
  O      -33.649      31.280      -2.198
  C      -34.949      29.270      -1.934
  O      -34.249      28.506      -0.947
  C      -35.661      30.434      -1.264
  O      -36.363      30.051      -0.089
  C      -34.483      31.371      -1.024
  N      -37.077      34.558       2.015
  C      -36.896      33.222       2.060
  N      -36.213      32.442       1.199
  C      -35.681      33.179       0.210
  C      -35.806      34.544       0.015
  C      -36.532      35.253       0.988
  N      -36.697      36.620       0.976
  N      -35.165      34.924      -1.150
  C      -34.666      33.809      -1.643
  N      -34.898      32.741      -0.821
  O      -35.605      27.527      -6.770
  O      -36.890      28.960      -5.096
  H      -36.628      30.859       0.390
  H      -37.592      28.368      -5.431
  H      -37.357      32.712       2.902
  H      -34.135      33.719      -2.579
  H      -33.884      31.068      -0.157
  H      -36.383      30.873      -1.962
  H      -35.629      28.634      -2.506
  H      -32.934      29.424      -2.740
  H      -35.220      30.666      -4.325
  H      -37.119      37.038       1.790
  H      -36.089      37.183       0.385
  H      -33.504      30.758      -4.769
  P      -34.029      26.933      -1.165
  C      -34.566      26.507       1.300
  O      -33.622      26.329       0.261
  O      -33.130      26.564      -2.297
  O      -35.516      26.375      -1.383
  H      -35.475      25.491      -1.796
  H      -34.471      27.516       1.709
  H      -34.363      25.781       2.092
  H      -35.587      26.359       0.936
  H      -36.358      31.919      -7.416
  H      -36.603      31.464      -5.747
  H      -37.501      30.661      -7.013

 3  4  5  6  7  8  9  10  11  12  22  25  29  30  31  32 0
 6-311+G(2d,p)
 ****
 33  36  37 0
 6-311+G(2d,p)
 ****
 1  2  13  14  15  16  17  18  19  20  21  23  24  26 0
 3-21G
 ****
 27  28  34  35  38  39  40  41  42  43  44  45  46  47  48 0
 3-21G
 ****


