%nproc=1
%NoSave
%Mem=1900MB
#P OB98/GEN NMR

erre ene a

0 1
  C     -169.555    -870.992    -116.887
  O     -168.683    -872.090    -116.714
  H     -169.206    -870.402    -117.734
  H     -169.558    -870.365    -115.990
  H     -170.569    -871.347    -117.095
  P     -169.048    -873.115    -115.524
  C     -166.946    -872.317    -114.197
  O     -167.666    -873.405    -114.760
  C     -165.441    -872.475    -114.488
  O     -165.099    -873.886    -114.366
  C     -165.041    -872.035    -115.911
  O     -163.683    -871.560    -115.868
  C     -165.083    -873.352    -116.664
  O     -164.388    -873.244    -117.879
  C     -164.480    -874.271    -115.610
  N     -162.273    -878.649    -117.044
  C     -161.759    -877.421    -116.771
  N     -162.416    -876.306    -116.388
  C     -163.736    -876.557    -116.261
  C     -164.401    -877.748    -116.504
  C     -163.605    -878.834    -116.922
  N     -164.120    -880.073    -117.223
  N     -165.758    -877.595    -116.289
  C     -165.905    -876.337    -115.911
  N     -164.713    -875.672    -115.885
  O     -169.352    -874.478    -116.309
  O     -170.180    -872.706    -114.646
  H     -164.374    -874.101    -118.363
  H     -170.305    -874.547    -116.500
  H     -160.685    -877.334    -116.879
  H     -166.842    -875.856    -115.675
  H     -163.388    -874.139    -115.504
  H     -166.112    -873.637    -116.901
  H     -165.692    -871.253    -116.321
  H     -164.874    -871.937    -113.723
  H     -167.121    -872.298    -113.125
  H     -167.305    -871.383    -114.641
  H     -163.492    -880.792    -117.543
  H     -165.125    -880.216    -117.174
  P     -163.380    -870.038    -116.293
  C     -162.066    -870.315    -118.526
  O     -162.027    -869.955    -117.161
  O     -162.914    -869.393    -114.887
  O     -164.534    -869.270    -116.854
  H     -163.363    -868.528    -114.763
  H     -161.091    -870.204    -118.952
  H     -162.755    -869.680    -119.043
  H     -162.381    -871.333    -118.617

 6  7  8  9  10  11  12  13  14  15  25  28  32  33  34  35 0
 6-311+G(2d,p)
 ****
 36  37  40 0
 6-311+G(2d,p)
 ****
 1  2  3  4  5  16  17  18  19  20  21  22  23  24 0
 3-21G
 ****
 26  27  29  30  31  38  39 41  42  43  44  45  46  47  48 0
 3-21G
 ****


