%nproc=1
%NoSave
%Mem=1900MB
#P OB98/GEN NMR

erre ene a

0 1
  C      200.807      59.436     131.966
  O      199.689      59.006     131.214
  H      200.770      58.964     132.952
  H      200.769      60.521     132.093
  H      201.742      59.150     131.474
  P      199.718      59.309     129.638
  C      197.954      61.183     129.991
  O      199.221      60.826     129.456
  C      197.745      62.690     129.896
  O      198.879      63.391     130.455
  C      197.576      63.214     128.473
  O      196.235      63.074     128.020
  C      197.935      64.677     128.667
  O      196.826      65.375     129.276
  C      199.104      64.590     129.661
  N      202.485      66.954     126.709
  C      201.206      67.332     127.069
  N      200.762      68.505     126.566
  N      200.430      66.627     127.849
  C      200.995      65.466     128.260
  C      202.251      64.979     127.966
  C      203.104      65.778     127.116
  O      204.249      65.493     126.775
  N      202.475      63.767     128.562
  C      201.349      63.510     129.199
  N      200.418      64.508     129.045
  O      198.490      58.437     129.089
  O      200.990      58.952     128.942
  H      196.069      65.295     128.665
  H      198.839      57.627     128.672
  H      203.039      67.531     126.097
  H      201.160      62.625     129.789
  H      199.128      65.440     130.350
  H      198.152      65.188     127.725
  H      201.299      69.086     125.942
  H      198.290      62.748     127.780
  H      199.827      68.803     126.820
  H      196.870      62.946     130.508
  H      197.909      60.872     131.040
  H      197.173      60.661     129.427
  P      195.986      62.373     126.600
  C      195.829      64.739     125.548
  O      196.399      63.440     125.469
  O      194.388      62.332     126.507
  O      196.576      61.013     126.445
  H      194.074      61.409     126.565
  H      196.190      65.337     124.738
  H      196.104      65.193     126.477
  H      194.763      64.665     125.489

 6  7  8  9  10  11  12  13  14  15  26  29  33  34 0
 6-311+G(2d,p)
 ****
 36  38  39  40  41 0
 6-311+G(2d,p)
 ****
 1  2  3  4  5  16  17  18  19  20  21  22  23  24  25 0
 3-21G
 ****
 27  28  30  31  32  35  37  42  43  44  45  46  47 0
 3-21G
 ****
 48  49 0
 3-21G
 ****


