%nproc=1
%NoSave
%Mem=1900MB
#P OB98/GEN NMR

erre ene a

0 1
  C      604.081     223.647      19.146
  O      603.721     223.938      17.816
  P      603.826     222.889      16.611
  C      606.040     224.006      15.777
  O      605.359     222.810      16.135
  C      606.784     223.833      14.448
  O      607.592     225.014      14.212
  C      607.756     222.638      14.495
  O      607.775     221.842      13.308
  C      609.073     223.279      14.914
  O      610.213     222.499      14.617
  C      608.989     224.636      14.221
  N      613.607     226.488      15.266
  C      613.253     225.496      14.373
  N      614.269     224.783      13.842
  N      612.000     225.206      14.085
  C      611.093     225.923      14.782
  C      611.326     226.934      15.684
  C      612.710     227.270      15.980
  O      613.071     228.070      16.841
  N      610.176     227.392      16.251
  C      609.230     226.632      15.720
  N      609.752     225.705      14.847
  O      602.764     222.970      15.565
  O      603.643     221.489      17.393
  H      610.104     222.141      13.725
  H      603.168     220.885      16.786
  H      614.586     226.609      15.515
  H      608.179     226.693      15.950
  H      609.332     224.586      13.188
  H      609.043     223.396      16.006
  H      615.216     224.892      14.161
  H      607.450     221.918      15.270
  H      614.021     223.893      13.390
  H      606.061     223.751      13.634
  H      606.746     224.213      16.587
  H      605.344     224.844      15.720
  P      607.635     220.263      13.165
  C      610.148     219.945      13.572
  O      608.845     219.567      13.962
  O      608.003     219.959      11.629
  O      606.283     219.716      13.494
  H      607.411     219.258      11.289
  H      610.859     219.218      13.982
  H      610.390     220.927      13.972
  H      610.237     219.959      12.482
  H      603.919     224.511      19.757
  H      605.115     223.373      19.184
  H      603.483     222.837      19.508

 3  4  5  6  7  8  9  10  11  12  23  26  30  31 0
 6-311+G(2d,p)
 ****
 33  35  36  37  38 0
 6-311+G(2d,p)
 ****
 1  2  13  14  15  16  17  18  19  20  21  22  24  25 0
 3-21G
 ****
 27  28  29  32  34  39  40  41  42  43  44  45  46  47  48  49 0
 3-21G
 ****


