%nproc=1
%NoSave
%Mem=1900MB
#P OB98/GEN NMR

erre ene a

0 1
  C      211.719     119.876    -146.083
  O      212.065     118.839    -145.188
  H      211.549     120.791    -145.509
  H      210.802     119.631    -146.627
  H      212.534     120.052    -146.789
  P      212.211     117.346    -145.753
  C      209.817     116.570    -145.197
  O      210.745     116.893    -146.225
  C      208.666     115.729    -145.749
  O      207.979     116.501    -146.773
  C      209.117     114.404    -146.375
  O      208.138     113.406    -146.072
  C      209.115     114.720    -147.857
  O      208.982     113.549    -148.638
  C      207.959     115.718    -147.979
  N      208.101     116.547    -149.175
  C      208.087     115.878    -150.404
  O      207.947     114.654    -150.444
  N      208.298     116.596    -151.554
  C      208.557     117.864    -151.484
  N      208.796     118.508    -152.658
  C      208.610     118.606    -150.206
  C      208.370     117.895    -149.104
  O      212.909     116.371    -144.864
  O      212.992     117.542    -147.137
  H      209.176     113.760    -149.577
  H      213.954     117.479    -146.989
  H      208.835     119.662    -150.200
  H      208.399     118.354    -148.121
  H      206.996     115.194    -148.026
  H      210.062     115.201    -148.132
  H      210.103     114.080    -146.026
  H      207.942     115.557    -144.942
  H      208.774     117.953    -153.503
  H      209.426     117.510    -144.790
  H      209.049     119.482    -152.724
  H      210.329     116.025    -144.395
  P      208.503     112.167    -145.120
  C      209.128     110.499    -146.958
  O      209.606     111.251    -145.848
  O      207.323     111.414    -144.592
  O      209.320     112.841    -143.913
  H      209.178     112.321    -143.100
  H      209.931     109.925    -147.372
  H      208.745     111.166    -147.702
  H      208.349     109.841    -146.634

 6  7  8  9  10  11  12  13  14  15  16  26  30  31  32  33  35 0
 6-311+G(2d,p)
 ****
 37  38 0
 6-311+G(2d,p)
 ****
 1  2  3  4  5  17  18  19  20  21  22  23  24  25 0
 3-21G
 ****
 27  28  29  34  36  39  40  41  42  43  44  45  46 0
 3-21G
 ****


