%nproc=1
%NoSave
%Mem=1900MB
#P OB98/GEN NMR

erre ene a

0 1
  C      498.655     111.632    -115.439
  O      497.983     110.934    -116.469
  H      499.259     112.422    -115.891
  H      499.315     110.955    -114.886
  H      497.928     112.084    -114.756
  P      497.124     109.649    -116.021
  C      495.108     109.631    -117.679
  O      496.422     109.174    -117.388
  C      494.756     109.316    -119.130
  O      495.505     110.168    -120.031
  C      495.078     107.888    -119.562
  O      494.128     106.937    -119.110
  C      495.027     108.056    -121.073
  O      493.658     108.159    -121.504
  C      495.771     109.400    -121.242
  N      497.213     109.235    -121.444
  C      497.853     110.193    -122.238
  O      497.219     111.117    -122.738
  N      499.201     110.057    -122.483
  C      499.860     109.069    -121.959
  N      501.191     108.988    -122.240
  C      499.232     108.046    -121.105
  C      497.926     108.187    -120.888
  O      495.904     110.289    -115.203
  O      497.869     108.582    -115.292
  H      493.680     108.418    -122.442
  H      495.231     109.591    -115.005
  H      499.819     107.231    -120.699
  H      497.392     107.471    -120.266
  H      495.365     109.972    -122.087
  H      495.469     107.221    -121.616
  H      496.093     107.595    -119.275
  H      493.691     109.547    -119.276
  H      501.578     109.674    -122.876
  H      495.073     110.717    -117.508
  H      501.753     108.178    -122.003
  H      494.384     109.146    -117.017
  P      494.691     105.571    -118.477
  C      492.511     104.655    -117.392
  O      493.474     104.534    -118.436
  O      494.916     105.948    -116.940
  O      495.944     105.058    -119.115
  H      495.691     105.476    -116.574
  H      491.767     103.894    -117.503
  H      492.047     105.618    -117.444
  H      492.996     104.544    -116.445

 6  7  8  9  10  11  12  13  14  15  16  26  30  31  32  33  35 0
 6-311+G(2d,p)
 ****
 37  38 0
 6-311+G(2d,p)
 ****
 1  2  3  4  5  17  18  19  20  21  22  23  24  25 0
 3-21G
 ****
 27  28  29  34  36  39  40  41  42  43  44  45  46 0
 3-21G
 ****


