%nproc=1
%NoSave
%Mem=1900MB
#P OB98/GEN NMR

erre ene a

0 1
  C     -224.559     -63.515     355.747
  O     -223.493     -63.948     356.596
  P     -221.999     -63.633     356.099
  C     -220.997     -65.968     356.608
  O     -220.979     -64.577     356.904
  C     -220.889     -66.821     357.881
  O     -219.730     -66.438     358.668
  C     -222.114     -66.709     358.795
  O     -222.299     -67.980     359.421
  C     -221.666     -65.707     359.847
  O     -222.451     -65.818     361.029
  C     -220.186     -66.099     359.994
  N     -219.371     -65.044     360.592
  C     -219.260     -65.039     361.985
  O     -219.888     -65.859     362.662
  N     -218.474     -64.089     362.586
  C     -217.896     -63.181     361.862
  N     -217.131     -62.263     362.510
  C     -218.031     -63.114     360.389
  C     -218.772     -64.066     359.833
  O     -221.711     -62.172     356.690
  O     -221.848     -63.657     354.612
  H     -222.400     -66.743     361.344
  H     -221.364     -61.591     355.990
  H     -217.544     -62.330     359.829
  H     -218.930     -64.101     358.764
  H     -220.085     -66.995     360.622
  H     -221.758     -64.686     359.458
  H     -223.027     -66.419     358.266
  H     -220.751     -67.866     357.578
  H     -217.054     -62.351     363.518
  H     -220.166     -66.213     355.946
  H     -216.637     -61.518     362.049
  H     -221.909     -66.204     356.053
  P     -223.071     -69.122     358.607
  C     -225.595     -68.663     358.779
  O     -224.473     -69.297     359.373
  O     -222.292     -70.441     359.087
  O     -223.121     -69.029     357.121
  H     -222.623     -71.215     358.602
  H     -226.492     -68.963     359.326
  H     -225.698     -68.967     357.736
  H     -225.487     -67.578     358.847
  H     -225.497     -63.783     356.187
  H     -224.467     -63.985     354.790
  H     -224.511     -62.453     355.628

 3  4  5  6  7  8  9  10  11  12  13  21  23  27  28  29  30  32 0
 6-311+G(2d,p)
 ****
 34  35 0
 6-311+G(2d,p)
 ****
 1  2  14  15  16  17  18  19  20  22  24  25  26 0
 3-21G
 ****
 31  33  36  37  38  39  40  41  42  43  44  45  46 0
 3-21G
 ****


