%nproc=1
%NoSave
%Mem=1900MB
#P OB98/GEN NMR

erre ene a

0 1
  C      191.478     249.370     285.299
  O      191.401     248.144     286.008
  P      191.225     246.800     285.145
  C      193.583     245.873     285.720
  O      192.701     246.346     284.709
  C      194.571     244.844     285.161
  O      195.437     244.395     286.232
  C      193.904     243.613     284.544
  O      194.676     243.222     283.408
  C      194.041     242.558     285.624
  O      194.001     241.238     285.080
  C      195.381     242.955     286.260
  N      195.521     242.442     287.619
  C      196.247     241.257     287.777
  O      196.667     240.657     286.789
  N      196.433     240.757     289.042
  C      195.853     241.331     290.049
  N      196.069     240.800     291.284
  C      194.977     242.511     289.910
  C      194.872     243.021     288.686
  O      190.583     247.330     283.781
  O      190.388     245.748     285.797
  H      194.718     241.159     284.417
  H      189.985     246.662     283.394
  H      194.487     242.927     290.780
  H      194.275     243.901     288.495
  H      196.223     242.580     285.659
  H      193.227     242.656     286.349
  H      192.868     243.798     284.240
  H      195.203     245.345     284.419
  H      196.660     239.981     291.351
  H      192.996     245.392     286.509
  H      195.658     241.177     292.126
  H      194.117     246.721     286.163
  P      193.900     242.996     282.023
  C      194.244     245.521     281.711
  O      193.331     244.442     281.625
  O      192.567     242.255     282.522
  O      194.582     242.217     280.950
  H      192.026     242.000     281.754
  H      193.774     246.411     281.286
  H      195.154     245.303     281.145
  H      194.488     245.720     282.758
  H      191.593     250.177     285.993
  H      190.581     249.512     284.733
  H      192.318     249.347     284.636

 3  4  5  6  7  8  9  10  11  12  13  21  23  27  28  29  30  32 0
 6-311+G(2d,p)
 ****
 34  35 0
 6-311+G(2d,p)
 ****
 1  2  14  15  16  17  18  19  20  22  24  25  26 0
 3-21G
 ****
 31  33  36  37  38  39  40  41  42  43  44  45  46 0
 3-21G
 ****


