%nproc=1
%NoSave
%Mem=1900MB
#P OB98/GEN NMR

erre ene a

0 1
  C      -30.873     -68.610     -78.468
  O      -31.861     -67.833     -79.122
  P      -32.708     -66.801     -78.229
  C      -34.750     -67.001     -76.630
  O      -33.785     -67.677     -77.425
  C      -35.937     -67.918     -76.349
  O      -36.583     -68.311     -77.578
  C      -35.567     -69.223     -75.657
  O      -35.403     -69.066     -74.257
  C      -36.793     -70.070     -75.956
  O      -37.858     -69.733     -75.046
  C      -37.148     -69.629     -77.383
  N      -37.663     -74.208     -79.473
  C      -38.491     -73.542     -78.591
  N      -39.578     -74.217     -78.161
  N      -38.274     -72.324     -78.170
  C      -37.143     -71.775     -78.678
  C      -36.246     -72.335     -79.561
  C      -36.492     -73.687     -80.008
  O      -35.769     -74.349     -80.746
  N      -35.226     -71.468     -79.852
  C      -35.503     -70.386     -79.154
  N      -36.632     -70.538     -78.391
  O      -33.600     -66.025     -79.308
  O      -31.886     -65.869     -77.405
  H      -38.314     -68.956     -75.428
  H      -33.950     -65.199     -78.922
  H      -37.871     -75.149     -79.764
  H      -34.909     -69.480     -79.153
  H      -38.229     -69.545     -77.526
  H      -36.606     -71.142     -75.844
  H      -39.767     -75.180     -78.398
  H      -34.685     -69.684     -76.121
  H      -40.169     -73.777     -77.466
  H      -36.665     -67.357     -75.749
  H      -35.093     -66.109     -77.160
  H      -34.286     -66.685     -75.690
  P      -34.104     -69.743     -73.600
  C      -33.237     -72.188     -73.449
  O      -34.289     -71.318     -73.822
  O      -34.348     -69.544     -72.032
  O      -32.808     -69.159     -74.053
  H      -33.498     -69.526     -71.555
  H      -33.623     -73.210     -73.416
  H      -32.847     -71.930     -72.460
  H      -32.433     -72.138     -74.188
  H      -30.392     -69.248     -79.180
  H      -31.333     -69.207     -77.709
  H      -30.148     -67.962     -78.022

 3  4  5  6  7  8  9  10  11  12  23  26  30  31 0
 6-311+G(2d,p)
 ****
 33  35  36  37  38 0
 6-311+G(2d,p)
 ****
 1  2  13  14  15  16  17  18  19  20  21  22  24  25 0
 3-21G
 ****
 27  28  29  32  34  39  40  41  42  43  44  45  46  47  48  49 0
 3-21G
 ****


