%nproc=1
%NoSave
%Mem=1900MB
#P OB98/GEN NMR

erre ene a

0 1
  C     -121.540    -148.844    -148.064
  O     -120.458    -149.416    -147.360
  P     -119.815    -148.688    -146.086
  C     -118.220    -146.729    -145.649
  O     -119.081    -147.357    -146.592
  C     -118.385    -145.209    -145.669
  O     -119.746    -144.867    -145.300
  C     -117.437    -144.462    -144.720
  O     -117.034    -143.259    -145.381
  C     -118.326    -144.147    -143.531
  O     -117.833    -143.057    -142.763
  C     -119.667    -143.901    -144.232
  N     -120.799    -144.016    -143.324
  C     -121.300    -142.828    -142.789
  O     -120.713    -141.762    -142.984
  N     -122.448    -142.886    -142.034
  C     -122.932    -144.037    -141.692
  N     -124.108    -144.049    -141.002
  C     -122.277    -145.319    -142.036
  C     -121.251    -145.237    -142.880
  O     -118.982    -149.561    -145.210
  O     -121.083    -148.115    -145.285
  H     -121.037    -148.421    -144.359
  H     -116.976    -143.314    -142.363
  H     -122.643    -146.246    -141.622
  H     -120.722    -146.123    -143.213
  H     -119.683    -142.904    -144.693
  H     -118.391    -145.025    -142.877
  H     -116.550    -145.048    -144.461
  H     -118.232    -144.863    -146.703
  H     -124.547    -143.155    -140.821
  H     -117.191    -146.979    -145.913
  H     -124.708    -144.870    -140.973
  H     -118.416    -147.124    -144.646
  P     -115.514    -142.767    -145.212
  C     -114.014    -141.926    -143.265
  O     -115.268    -142.443    -143.663
  O     -115.578    -141.294    -145.858
  O     -114.470    -143.580    -145.910
  H     -114.686    -141.049    -146.177
  H     -114.002    -141.832    -142.177
  H     -113.852    -140.939    -143.707
  H     -113.209    -142.604    -143.568
  H     -121.817    -149.485    -148.875
  H     -121.250    -147.888    -148.448
  H     -122.373    -148.725    -147.403

 3  4  5  6  7  8  9  10  11  12  13  24  27  28  29  30  32 0
 6-311+G(2d,p)
 ****
 34  35 0
 6-311+G(2d,p)
 ****
 1  2  14  15  16  17  18  19  20  21  22  23  25  26 0
 3-21G
 ****
 31  33  36  37  38  39  40  41  42  43  44  45  46 0
 3-21G
 ****


