%nproc=1
%NoSave
%Mem=1900MB
#P OB98/GEN NMR

erre ene a

0 1
  C       76.518    -128.479     178.766
  O       77.327    -129.196     177.829
  P       78.794    -129.638     178.306
  C       80.299    -129.766     176.183
  O       79.486    -130.465     177.121
  C       80.475    -130.603     174.911
  O       80.921    -131.937     175.225
  C       79.183    -130.789     174.137
  O       78.873    -129.625     173.394
  C       79.503    -132.003     173.273
  O       80.080    -131.622     172.012
  C       80.525    -132.781     174.131
  N       80.006    -134.054     174.607
  C       80.644    -135.197     174.114
  O       81.572    -135.092     173.309
  N       80.197    -136.427     174.528
  C       79.188    -136.507     175.338
  N       78.788    -137.754     175.707
  C       78.468    -135.324     175.858
  C       78.927    -134.142     175.453
  O       78.500    -130.752     179.414
  O       79.615    -128.515     178.856
  H       80.923    -131.171     172.234
  H       79.187    -130.731     180.106
  H       77.628    -135.443     176.525
  H       78.458    -133.221     175.785
  H       81.434    -132.988     173.550
  H       78.602    -132.580     173.042
  H       78.362    -131.032     174.824
  H       81.227    -130.118     174.278
  H       79.301    -138.538     175.329
  H       81.273    -129.545     176.622
  H       78.009    -137.931     176.325
  H       79.828    -128.804     175.957
  P       77.761    -128.639     173.980
  C       77.199    -127.801     171.618
  O       77.654    -127.447     172.911
  O       78.541    -127.927     175.187
  O       76.473    -129.245     174.430
  H       77.932    -127.361     175.694
  H       76.975    -126.884     171.063
  H       76.290    -128.402     171.680
  H       77.980    -128.351     171.086
  H       75.573    -128.249     178.319
  H       77.012    -127.571     179.042
  H       76.364    -129.080     179.637

 3  4  5  6  7  8  9  10  11  12  13  21  23  27  28  29  30  32 0
 6-311+G(2d,p)
 ****
 34  35 0
 6-311+G(2d,p)
 ****
 1  2  14  15  16  17  18  19  20  22  24  25  26 0
 3-21G
 ****
 31  33  36  37  38  39  40  41  42  43  44  45  46 0
 3-21G
 ****


