%nproc=1
%NoSave
%Mem=1900MB
#P OB98/GEN NMR

erre ene a

0 1
  C     -189.897     124.555     108.636
  O     -190.433     123.733     109.676
  P     -189.365     123.025     110.642
  C     -187.582     121.153     110.422
  O     -188.690     121.815     109.832
  C     -187.569     119.672     110.038
  O     -188.757     118.982     110.472
  C     -187.475     119.437     108.537
  O     -186.135     119.592     108.103
  C     -187.984     118.007     108.414
  O     -186.932     117.053     108.666
  C     -189.053     117.932     109.516
  N     -192.671     115.948     106.571
  C     -191.335     115.614     106.678
  N     -190.907     114.591     105.909
  N     -190.494     116.229     107.470
  C     -191.061     117.232     108.181
  C     -192.376     117.636     108.183
  C     -193.296     116.951     107.300
  O     -194.491     117.193     107.187
  N     -192.588     118.648     109.086
  C     -191.377     118.936     109.531
  N     -190.426     118.064     109.063
  O     -190.281     122.297     111.734
  O     -188.410     123.982     111.275
  H     -187.290     116.152     108.565
  H     -190.190     122.746     112.595
  H     -193.273     115.447     105.939
  H     -191.143     119.742     110.209
  H     -189.002     116.981     110.059
  H     -188.357     117.792     107.407
  H     -191.500     114.073     105.280
  H     -188.148     120.123     108.005
  H     -189.932     114.326     105.977
  H     -186.708     119.210     110.540
  H     -187.622     121.252     111.509
  H     -186.661     121.648     110.095
  P     -185.820     120.755     107.045
  C     -185.951     120.990     104.464
  O     -186.308     120.243     105.610
  O     -184.222     120.727     106.942
  O     -186.310     122.107     107.446
  H     -183.877     121.640     106.958
  H     -185.875     120.312     103.611
  H     -184.995     121.503     104.597
  H     -186.731     121.730     104.261
  H     -190.698     124.970     108.061
  H     -189.271     123.964     108.001
  H     -189.320     125.346     109.068

 3  4  5  6  7  8  9  10  11  12  23  26  30  31 0
 6-311+G(2d,p)
 ****
 33  35  36  37  38 0
 6-311+G(2d,p)
 ****
 1  2  13  14  15  16  17  18  19  20  21  22  24  25 0
 3-21G
 ****
 27  28  29  32  34  39  40  41  42  43  44  45  46  47  48  49 0
 3-21G
 ****


