%nproc=1
%NoSave
%Mem=1900MB
#P OB98/GEN NMR

erre ene a

0 1
  C      187.755      48.207     -51.349
  O      188.301      48.725     -52.546
  P      187.508      48.639     -53.937
  C      185.255      49.665     -54.634
  O      185.986      49.032     -53.596
  C      183.858      49.057     -54.782
  O      183.971      47.713     -55.328
  C      183.059      48.959     -53.473
  O      181.688      49.156     -53.824
  C      183.300      47.522     -53.051
  O      182.334      47.055     -52.116
  C      183.303      46.816     -54.414
  N      183.945      45.509     -54.351
  C      183.278      44.450     -54.968
  O      182.158      44.620     -55.461
  N      183.858      43.206     -54.965
  C      184.964      43.020     -54.307
  N      185.497      41.769     -54.341
  C      185.637      44.084     -53.537
  C      185.090      45.295     -53.615
  O      187.675      47.361     -54.685
  O      188.025      49.923     -54.743
  H      182.323      47.666     -51.351
  H      188.928      49.757     -55.114
  H      186.525      43.868     -52.961
  H      185.510      46.140     -53.085
  H      182.275      46.681     -54.778
  H      184.287      47.436     -52.578
  H      183.375      49.678     -52.714
  H      183.305      49.658     -55.512
  H      185.010      41.073     -54.895
  H      185.802      49.525     -55.569
  H      186.393      41.538     -53.939
  H      185.191      50.744     -54.442
  P      180.669      49.898     -52.830
  C      180.597      52.161     -51.632
  O      181.415      51.213     -52.298
  O      180.081      49.036     -51.763
  O      179.533      50.489     -53.798
  H      178.750      50.736     -53.263
  H      181.238      52.853     -51.079
  H      179.920      51.669     -50.929
  H      180.016      52.723     -52.366
  H      188.442      48.367     -50.545
  H      187.577      47.158     -51.463
  H      186.832      48.704     -51.134

 3  4  5  6  7  8  9  10  11  12  13  23  27  28  29  30  32 0
 6-311+G(2d,p)
 ****
 34  35 0
 6-311+G(2d,p)
 ****
 1  2  14  15  16  17  18  19  20  21  22  24  25  26 0
 3-21G
 ****
 31  33  36  37  38  39  40  41  42  43  44  45  46 0
 3-21G
 ****


