%nproc=1
%NoSave
%Mem=1900MB
#P OB98/GEN NMR

erre ene a

0 1
  C      -83.399     314.702     648.041
  O      -83.805     315.491     646.937
  H      -84.172     314.703     648.807
  H      -83.241     313.673     647.704
  H      -82.462     315.087     648.456
  P      -84.129     317.033     647.226
  C      -82.297     317.980     645.648
  O      -83.686     317.856     645.915
  C      -82.075     318.339     644.182
  O      -82.136     317.125     643.392
  C      -83.101     319.339     643.599
  O      -82.435     320.495     643.097
  C      -83.733     318.588     642.431
  O      -83.952     319.419     641.292
  C      -82.729     317.478     642.139
  N      -82.260     313.900     638.537
  C      -81.331     314.651     639.162
  N      -81.512     315.520     640.194
  C      -82.803     315.537     640.578
  C      -83.854     314.799     640.054
  C      -83.550     313.959     638.965
  N      -84.493     313.224     638.281
  N      -85.035     315.093     640.712
  C      -84.708     316.014     641.590
  N      -83.382     316.334     641.534
  O      -83.023     317.441     648.321
  O      -85.513     317.308     647.714
  H      -83.125     319.927     641.151
  H      -83.451     317.919     649.052
  H      -80.317     314.569     638.793
  H      -85.404     316.518     642.250
  H      -81.930     317.815     641.462
  H      -84.703     318.179     642.751
  H      -83.859     319.630     644.339
  H      -81.059     318.744     644.073
  H      -81.792     317.027     645.860
  H      -84.206     312.747     637.449
  H      -85.474     313.357     638.534
  H      -81.873     318.746     646.303
  P      -83.366     321.780     642.779
  C      -82.309     323.370     644.557
  O      -82.509     323.087     643.183
  O      -84.478     321.704     643.922
  O      -83.966     321.777     641.416
  H      -85.301     322.134     643.627
  H      -81.726     324.262     644.656
  H      -81.793     322.554     645.018
  H      -83.257     323.508     645.034

 6  7  8  9  10  11  12  13  14  15  25  28  32  33  34  35 0
 6-311+G(2d,p)
 ****
 36  39  40 0
 6-311+G(2d,p)
 ****
 1  2  3  4  5  16  17  18  19  20  21  22  23  24 0
 3-21G
 ****
 26  27  29  30  31  37  38  41  42  43  44  45  46  47  48 0
 3-21G
 ****


