%nproc=1
%NoSave
%Mem=1900MB
#P OB98/GEN NMR

erre ene a

0 1
  C     -443.946     -67.922     428.003
  O     -444.259     -69.286     427.709
  P     -444.434     -70.355     428.893
  C     -442.329     -71.787     428.632
  O     -443.742     -71.741     428.452
  C     -441.731     -73.186     428.404
  O     -442.460     -74.189     429.151
  C     -441.709     -73.643     426.938
  O     -440.537     -74.449     426.799
  C     -442.965     -74.493     426.849
  O     -442.957     -75.370     425.726
  C     -442.960     -75.171     428.225
  N     -444.276     -75.666     428.605
  C     -444.823     -76.693     427.837
  O     -444.223     -77.105     426.845
  N     -446.053     -77.192     428.182
  C     -446.724     -76.650     429.144
  N     -447.947     -77.176     429.420
  C     -446.221     -75.504     429.935
  C     -445.002     -75.078     429.619
  O     -445.832     -70.497     429.406
  O     -443.463     -69.813     430.049
  H     -442.039     -75.684     425.593
  H     -443.825     -70.068     430.919
  H     -446.825     -75.066     430.714
  H     -444.543     -74.249     430.142
  H     -442.257     -76.019     428.235
  H     -443.847     -73.839     426.751
  H     -441.707     -72.815     426.224
  H     -440.711     -73.174     428.801
  H     -448.266     -77.939     428.839
  H     -442.095     -71.464     429.651
  H     -448.596     -76.759     430.073
  H     -441.859     -71.070     427.949
  P     -439.070     -73.809     426.731
  C     -438.602     -74.905     424.458
  O     -438.188     -74.777     425.807
  O     -438.460     -73.486     428.054
  O     -439.239     -72.494     425.823
  H     -438.474     -71.914     425.968
  H     -437.816     -75.404     423.890
  H     -438.789     -73.917     424.019
  H     -439.519     -75.506     424.409
  H     -443.870     -67.369     427.090
  H     -443.014     -67.875     428.527
  H     -444.719     -67.502     428.612

 3  4  5  6  7  8  9  10  11  12  13  23  27  28  29  30  32 0
 6-311+G(2d,p)
 ****
 34  35 0
 6-311+G(2d,p)
 ****
 1  2  14  15  16  17  18  19  20  21  22  24  25  26 0
 3-21G
 ****
 31  33  36  37  38  39  40  41  42  43  44  45  46 0
 3-21G
 ****


