%nproc=1
%NoSave
%Mem=1900MB
#P OB98/GEN NMR

erre ene a

0 1
  C     -167.065     166.047     174.018
  O     -165.753     166.170     173.495
  P     -165.254     165.219     172.305
  C     -164.145     163.501     173.863
  O     -165.175     163.733     172.910
  C     -162.902     162.929     173.183
  O     -161.841     162.822     174.163
  C     -163.120     161.539     172.593
  O     -162.365     161.427     171.384
  C     -162.517     160.596     173.621
  O     -162.095     159.364     173.011
  C     -161.387     161.455     174.194
  N     -158.031     159.083     177.272
  C     -158.041     159.281     175.934
  N     -158.977     159.897     175.180
  C     -159.959     160.385     175.954
  C     -160.086     160.265     177.329
  C     -159.061     159.573     178.001
  N     -159.049     159.383     179.366
  N     -161.247     160.870     177.769
  C     -161.800     161.359     176.681
  N     -161.054     161.102     175.560
  O     -164.018     165.670     171.609
  O     -166.502     165.135     171.308
  H     -161.602     158.859     173.692
  H     -166.194     165.134     170.381
  H     -157.181     158.886     175.397
  H     -162.736     161.896     176.647
  H     -160.477     161.385     173.584
  H     -163.268     160.356     174.383
  H     -164.176     161.320     172.398
  H     -162.568     163.632     172.412
  H     -164.512     162.785     174.602
  H     -158.216     158.985     179.770
  H     -159.720     159.897     179.925
  H     -163.906     164.439     174.377
  P     -162.975     160.444     170.260
  C     -160.710     159.160     170.221
  O     -162.110     159.102     170.384
  O     -163.038     161.097     168.921
  O     -164.399     160.086     170.903
  H     -164.387     160.184     171.880
  H     -160.304     158.149     170.300
  H     -160.264     159.774     171.008
  H     -160.452     159.570     169.241
  H     -167.206     166.764     174.800
  H     -167.202     165.061     174.410
  H     -167.777     166.223     173.239

 3  4  5  6  7  8  9  10  11  12  22  25  29  30  31  32 0
 6-311+G(2d,p)
 ****
 33  36  37 0
 6-311+G(2d,p)
 ****
 1  2  13  14  15  16  17  18  19  20  21  23  24  26 0
 3-21G
 ****
 27  28  34  35  38  39  40  41  42  43  44  45  46  47  48 0
 3-21G
 ****


