%nproc=1
%NoSave
%Mem=1900MB
#P OB98/GEN NMR

erre ene a

0 1
  C      232.020    -109.298    -112.943
  O      232.360    -110.088    -111.827
  H      231.801    -108.284    -112.595
  H      231.125    -109.692    -113.433
  H      232.848    -109.254    -113.653
  P      232.689    -111.646    -112.039
  C      235.072    -111.377    -112.957
  O      234.284    -111.772    -111.842
  C      236.235    -112.345    -113.180
  O      236.893    -112.033    -114.438
  C      237.302    -112.292    -112.075
  O      237.642    -113.619    -111.666
  C      238.495    -111.649    -112.763
  O      239.739    -111.980    -112.148
  C      238.306    -112.151    -114.199
  N      239.099    -111.388    -115.154
  C      240.343    -111.926    -115.494
  O      240.714    -112.991    -114.996
  N      241.160    -111.224    -116.341
  C      240.787    -110.060    -116.776
  N      241.656    -109.402    -117.588
  C      239.492    -109.442    -116.420
  C      238.704    -110.156    -115.617
  O      232.162    -112.228    -113.306
  O      232.117    -112.367    -110.729
  H      239.861    -112.953    -112.199
  H      231.960    -113.319    -110.932
  H      239.231    -108.466    -116.806
  H      237.735    -109.782    -115.302
  H      238.580    -113.211    -114.284
  H      238.387    -110.556    -112.732
  H      236.988    -111.721    -111.201
  H      235.828    -113.358    -113.288
  H      242.536    -109.860    -117.799
  H      235.446    -110.362    -112.780
  H      241.487    -108.484    -117.967
  H      234.435    -111.376    -113.847
  P      237.100    -114.079    -110.227
  C      234.891    -114.949    -111.278
  O      236.013    -115.238    -110.454
  O      236.234    -112.824    -109.742
  O      238.188    -114.403    -109.257
  H      236.685    -112.374    -109.001
  H      234.259    -115.811    -111.335
  H      235.227    -114.687    -112.260
  H      234.342    -114.131    -110.859

 6  7  8  9  10  11  12  13  14  15  16  26  30  31  32  33  35 0
 6-311+G(2d,p)
 ****
 37  38 0
 6-311+G(2d,p)
 ****
 1  2  3  4  5  17  18  19  20  21  22  23  24  25 0
 3-21G
 ****
 27  28  29  34  36  39  40  41  42  43  44  45  46 0
 3-21G
 ****


