%nproc=1
%NoSave
%Mem=1900MB
#P OB98/GEN NMR

erre ene a

0 1
  C     -899.190    -396.203     -67.614
  O     -899.250    -395.145     -66.656
  P     -898.200    -394.962     -65.460
  C     -897.280    -392.699     -66.316
  O     -896.990    -394.045     -65.998
  C     -896.050    -392.001     -66.912
  O     -895.850    -392.440     -68.277
  C     -896.160    -390.476     -67.045
  O     -896.050    -389.824     -65.783
  C     -895.010    -390.182     -68.012
  O     -893.770    -390.071     -67.328
  C     -895.020    -391.438     -68.912
  N     -895.500    -391.174     -70.258
  C     -894.540    -390.779     -71.187
  O     -893.370    -390.593     -70.870
  N     -894.920    -390.575     -72.510
  C     -896.180    -390.688     -72.827
  N     -896.500    -390.492     -74.138
  C     -897.240    -390.959     -71.839
  C     -896.840    -391.189     -70.595
  O     -897.760    -396.238     -64.846
  O     -898.940    -394.014     -64.381
  H     -898.570    -394.190     -63.491
  H     -893.930    -389.508     -66.540
  H     -898.280    -390.971     -72.140
  H     -897.560    -391.414     -69.800
  H     -894.020    -391.873     -68.960
  H     -895.190    -389.246     -68.541
  H     -897.130    -390.226     -67.513
  H     -895.170    -392.265     -66.301
  H     -895.760    -390.305     -74.801
  H     -897.570    -392.181     -65.384
  H     -897.450    -390.550     -74.492
  H     -898.140    -392.646     -67.003
  P     -897.400    -389.551     -64.980
  C     -896.740    -391.018     -62.944
  O     -897.660    -390.806     -64.000
  O     -898.530    -389.688     -66.087
  O     -897.460    -388.210     -64.312
  H     -899.220    -389.024     -65.941
  H     -897.280    -391.547     -62.124
  H     -896.350    -390.100     -62.535
  H     -895.930    -391.665     -63.274
  H     -900.000    -396.104     -68.306
  H     -899.264    -397.144     -67.111
  H     -898.261    -396.153     -68.143

 3  4  5  6  7  8  9  10  11  12  13  24  27  28  29  30  32 0
 6-311+G(2d,p)
 ****
 34  35 0
 6-311+G(2d,p)
 ****
 1  2  14  15  16  17  18  19  20  21  22  23  25  26 0
 3-21G
 ****
 31  33  36  37  38  39  40  41  42  43  44  45  46 0
 3-21G
 ****


