%nproc=1
%NoSave
%Mem=1900MB
#P OB98/GEN NMR

erre ene a

0 1
  C      676.985    -895.728     580.269
  O      677.950    -896.468     579.546
  H      677.129    -895.918     581.339
  H      675.975    -896.058     579.989
  H      677.087    -894.668     580.078
  P      677.945    -896.368     577.946
  C      680.427    -895.638     578.061
  O      679.108    -895.328     577.612
  C      681.276    -896.128     576.898
  O      681.378    -895.138     575.857
  C      682.737    -896.468     577.250
  O      682.883    -897.658     578.000
  C      683.332    -896.558     575.863
  O      682.945    -897.808     575.264
  C      682.646    -895.358     575.168
  N      683.472    -894.138     575.196
  C      684.231    -893.878     574.050
  O      684.196    -894.628     573.094
  N      685.046    -892.758     574.047
  C      685.104    -891.998     575.110
  N      685.915    -890.918     575.029
  C      684.336    -892.258     576.324
  C      683.549    -893.338     576.300
  O      676.632    -896.088     577.314
  O      678.607    -897.748     577.458
  H      681.976    -897.878     575.339
  H      678.607    -897.748     576.467
  H      684.452    -891.608     577.200
  H      682.948    -893.598     577.173
  H      682.412    -895.598     574.130
  H      684.425    -896.518     575.863
  H      683.204    -895.608     577.794
  H      680.768    -897.008     576.458
  H      686.447    -890.778     574.168
  H      680.347    -896.388     578.844
  H      686.087    -890.318     575.837
  H      680.902    -894.738     578.480
  P      683.756    -897.598     579.362
  C      682.122    -899.248     580.549
  O      682.720    -897.978     580.552
  O      683.969    -896.008     579.549
  O      685.022    -898.348     579.356
  H      684.856    -895.758     579.227
  H      681.472    -899.338     581.394
  H      682.881    -900.000     580.602
  H      681.557    -899.374     579.649

 6  7  8  9  10  11  12  13  14  15  16  26  30  31  32  33  35 0
 6-311+G(2d,p)
 ****
 37  38 0
 6-311+G(2d,p)
 ****
 1  2  3  4  5  17  18  19  20  21  22  23  24  25 0
 3-21G
 ****
 27  28  29  34  36  39  40  41  42  43  44  45  46 0
 3-21G
 ****


