%nproc=1
%NoSave
%Mem=1900MB
#P OB98/GEN NMR

erre ene a

0 1
  C      309.553      34.480    1329.484
  O      309.422      34.125    1328.109
  P      308.724      35.071    1327.012
  C      310.829      35.226    1325.485
  O      309.869      35.958    1326.267
  C      311.888      36.177    1324.898
  O      312.388      37.086    1325.906
  C      313.117      35.482    1324.331
  O      312.836      34.872    1323.080
  C      314.127      36.617    1324.314
  O      313.942      37.430    1323.109
  C      313.737      37.433    1325.568
  N      314.674      37.168    1326.666
  C      315.827      37.963    1326.702
  O      316.072      38.758    1325.800
  N      316.695      37.787    1327.776
  C      316.466      36.878    1328.654
  N      317.372      36.765    1329.679
  C      315.295      35.982    1328.634
  C      314.459      36.174    1327.607
  O      307.579      35.880    1327.539
  O      308.233      34.083    1325.850
  H      314.531      38.227    1323.222
  H      307.426      34.462    1325.429
  H      315.145      35.203    1329.363
  H      313.554      35.566    1327.509
  H      313.746      38.493    1325.348
  H      315.173      36.263    1324.289
  H      313.478      34.701    1325.051
  H      311.412      36.790    1324.104
  H      318.151      37.405    1329.679
  H      310.293      34.740    1324.675
  H      317.258      36.083    1330.423
  H      311.324      34.453    1326.126
  P      312.573      33.281    1322.980
  C      310.178      33.492    1322.023
  O      310.982      33.048    1323.092
  O      313.411      32.429    1323.900
  O      312.859      32.943    1321.434
  H      313.213      32.047    1321.362
  H      309.230      32.954    1322.035
  H      310.699      33.333    1321.057
  H      309.986      34.565    1322.138
  H      310.049      33.692    1330.010
  H      308.582      34.635    1329.906
  H      310.126      35.380    1329.567

 3  4  5  6  7  8  9  10  11  12  13  23  27  28  29  30  32 0
 6-311+G(2d,p)
 ****
 34  35 0
 6-311+G(2d,p)
 ****
 1  2  14  15  16  17  18  19  20  21  22  24  25  26 0
 3-21G
 ****
 31  33  36  37  38  39  40  41  42  43  44  45  46 0
 3-21G
 ****


