%nproc=1
%NoSave
%Mem=1900MB
#P OB98/GEN NMR

erre ene a

0 1
  C     -108.785    -142.390      21.729
  O     -107.839    -143.099      20.953
  H     -109.408    -141.792      21.060
  H     -108.285    -141.721      22.433
  H     -109.428    -143.089      22.271
  P     -106.694    -143.934      21.703
  C     -106.741    -146.510      21.647
  O     -106.539    -145.317      20.901
  C     -107.087    -147.678      20.720
  O     -108.316    -147.358      20.014
  C     -106.002    -147.978      19.679
  O     -105.933    -149.396      19.496
  C     -106.544    -147.306      18.434
  O     -106.006    -147.877      17.256
  C     -108.056    -147.473      18.602
  N     -108.790    -146.469      17.828
  C     -109.150    -146.828      16.523
  O     -108.865    -147.946      16.084
  N     -109.766    -145.899      15.725
  C     -109.954    -144.693      16.164
  N     -110.532    -143.810      15.308
  C     -109.565    -144.261      17.524
  C     -108.996    -145.191      18.294
  O     -106.850    -144.084      23.181
  O     -105.348    -143.146      21.331
  H     -106.567    -147.630      16.489
  H     -105.164    -142.465      22.006
  H     -109.739    -143.244      17.842
  H     -108.668    -144.962      19.304
  H     -108.379    -148.471      18.277
  H     -106.275    -146.241      18.443
  H     -105.019    -147.589      19.961
  H     -107.297    -148.564      21.337
  H     -110.759    -144.146      14.378
  H     -107.568    -146.336      22.343
  H     -110.692    -142.836      15.523
  H     -105.841    -146.745      22.224
  P     -104.583    -150.199      19.828
  C     -105.093    -150.208      22.339
  O     -104.786    -151.013      21.202
  O     -103.337    -149.378      19.770
  O     -104.545    -151.360      18.721
  H     -103.615    -151.584      18.520
  H     -105.209    -150.834      23.199
  H     -106.003    -149.673      22.162
  H     -104.298    -149.513      22.509

 6  7  8  9  10  11  12  13  14  15  16  26  30  31  32  33  35 0
 6-311+G(2d,p)
 ****
 37  38 0
 6-311+G(2d,p)
 ****
 1  2  3  4  5  17  18  19  20  21  22  23  24  25 0
 3-21G
 ****
 27  28  29  34  36  39  40  41  42  43  44  45  46 0
 3-21G
 ****


