%nproc=1
%NoSave
%Mem=1900MB
#P OB98/GEN NMR

erre ene a

0 1
  C       95.970     127.253    -139.100
  O       96.226     125.891    -138.760
  P       97.097     125.574    -137.451
  C       96.626     124.579    -135.122
  O       96.091     125.286    -136.236
  C       95.626     124.554    -133.965
  O       95.339     125.883    -133.481
  C       94.279     123.963    -134.346
  O       94.360     122.554    -134.465
  C       93.399     124.470    -133.214
  O       93.524     123.637    -132.050
  C       94.003     125.864    -132.932
  N       93.196     126.956    -133.457
  C       91.928     127.112    -132.886
  O       91.535     126.326    -132.023
  N       91.134     128.144    -133.321
  C       91.565     128.943    -134.249
  N       90.738     129.948    -134.638
  C       92.889     128.805    -134.884
  C       93.642     127.796    -134.450
  O       98.193     126.543    -137.155
  O       97.688     124.113    -137.765
  H       92.846     123.950    -131.419
  H       98.552     124.022    -137.319
  H       93.204     129.499    -135.649
  H       94.627     127.620    -134.865
  H       94.111     126.019    -131.851
  H       92.342     124.477    -133.492
  H       93.942     124.397    -135.298
  H       96.069     123.974    -133.142
  H       89.828     130.013    -134.194
  H       97.555     125.054    -134.801
  H       90.999     130.649    -135.315
  H       96.885     123.563    -135.440
  P       94.251     121.924    -135.936
  C       95.994     121.164    -137.697
  O       95.694     122.029    -136.619
  O       93.387     123.015    -136.730
  O       93.607     120.577    -135.995
  H       92.825     122.568    -137.389
  H       96.856     121.565    -138.238
  H       95.152     121.084    -138.391
  H       96.249     120.173    -137.316
  H       95.381     127.293    -139.992
  H       96.898     127.761    -139.262
  H       95.440     127.727    -138.300

 3  4  5  6  7  8  9  10  11  12  13  23  27  28  29  30  32 0
 6-311+G(2d,p)
 ****
 34  35 0
 6-311+G(2d,p)
 ****
 1  2  14  15  16  17  18  19  20  21  22  24  25  26 0
 3-21G
 ****
 31  33  36  37  38  39  40  41  42  43  44  45  46 0
 3-21G
 ****


