%nproc=1
%NoSave
%Mem=1900MB
#P OB98/GEN NMR

erre ene a

0 1
  C      278.885     487.533    -364.050
  O      278.484     486.970    -365.308
  P      277.017     486.305    -365.363
  C      276.114     487.471    -367.512
  O      276.565     486.267    -366.899
  C      276.641     487.583    -368.936
  O      278.082     487.654    -368.957
  C      276.287     486.395    -369.828
  O      274.958     486.485    -370.316
  C      277.290     486.569    -370.958
  O      276.785     487.532    -371.913
  C      278.527     487.135    -370.228
  N      282.717     484.920    -372.014
  C      281.947     485.913    -372.562
  N      282.384     486.428    -373.750
  N      280.865     486.392    -372.003
  C      280.577     485.813    -370.812
  C      281.264     484.803    -370.172
  C      282.442     484.281    -370.809
  O      283.151     483.361    -370.385
  N      280.679     484.486    -368.977
  C      279.650     485.303    -368.878
  N      279.536     486.129    -369.978
  O      276.079     487.451    -364.740
  O      276.905     485.018    -364.613
  H      276.567     488.349    -371.415
  H      275.287     487.055    -364.328
  H      283.550     484.591    -372.487
  H      278.965     485.361    -368.046
  H      278.979     487.963    -370.782
  H      277.477     485.643    -371.515
  H      283.243     486.162    -374.194
  H      276.480     485.451    -369.310
  H      281.841     487.188    -374.139
  H      276.237     488.509    -369.377
  H      276.445     488.327    -366.933
  H      275.016     487.483    -367.486
  P      273.894     485.417    -369.738
  C      271.820     486.988    -369.723
  O      272.481     485.892    -370.312
  O      273.824     485.802    -368.183
  O      274.264     483.999    -369.956
  H      273.593     485.017    -367.658
  H      272.528     487.803    -369.511
  H      271.350     486.669    -368.785
  H      271.055     487.366    -370.405
  H      279.870     487.941    -364.140
  H      278.882     486.770    -363.300
  H      278.202     488.308    -363.772

 3  4  5  6  7  8  9  10  11  12  23  26  30  31  33  0
 6-311+G(2d,p)
 ****
 35  36  37  38 0
 6-311+G(2d,p)
 ****
 1  2  13  14  15  16  17  18  19  20  21  22  24  25  27  28  29 0
 3-21G
 ****
 32  34  39  40  41  42  43  44  45  46  47  48  49 0
 3-21G
 ****


