%nproc=1
%NoSave
%Mem=1900MB
#P OB98/GEN NMR

erre ene a

0 1
  C        6.818     -37.026      27.777
  O        7.375     -36.944      29.071
  H        6.672     -38.079      27.524
  H        7.500     -36.584      27.046
  H        5.850     -36.519      27.736
  P        7.522     -35.505      29.760
  C        6.174     -34.665      31.795
  O        6.125     -35.191      30.477
  C        5.150     -35.362      32.698
  O        3.810     -35.065      32.197
  C        5.285     -36.898      32.740
  O        4.833     -37.323      34.033
  C        4.307     -37.300      31.651
  O        4.029     -38.677      31.656
  C        3.159     -36.335      31.976
  N        2.133     -36.215      30.948
  C        0.916     -36.851      31.173
  O        0.643     -37.503      32.179
  N       -0.016     -36.719      30.177
  C        0.141     -36.020      29.016
  O       -0.742     -35.911      28.175
  C        1.450     -35.377      28.833
  C        2.369     -35.496      29.793
  O        8.041     -34.416      28.883
  O        8.501     -35.779      30.999
  H        9.402     -35.475      30.778
  H        3.485     -38.897      30.868
  H       -0.905     -37.170      30.324
  H        1.612     -34.823      27.918
  H        3.341     -35.024      29.690
  H        2.688     -36.621      32.921
  H        4.733     -37.085      30.668
  H        6.310     -37.242      32.579
  H        5.214     -34.932      33.704
  H        5.951     -33.594      31.743
  H        7.183     -34.799      32.198
  P        5.826     -37.693      35.238
  C        7.829     -36.513      36.376
  O        6.601     -36.356      35.675
  O        6.733     -38.843      34.945
  O        4.876     -38.012      36.486
  H        5.332     -38.620      37.096
  H        8.235     -35.550      36.604
  H        8.521     -37.057      35.767
  H        7.655     -37.051      37.284

 6  7  8  9  10  11  12  13  14  15  16  27  31  32  33  34  35 0
 6-311+G(2d,p)
 ****
 36  37 0
 6-311+G(2d,p)
 ****
 1  2  3  4  5  17  18  19  20  21  22  23  24  25 0
 3-21G
 ****
 26  28  29  30  38  39  40  41  42  43  44  45 0
 3-21G
 ****


