%nproc=1
%NoSave
%Mem=1900MB
#P OB98/GEN NMR

erre ene a

0 1
  C      661.882     216.570    1168.016
  O      662.983     217.016    1168.786
  H      661.660     215.535    1168.287
  H      662.116     216.612    1166.950
  H      660.996     217.187    1168.231
  P      663.582     218.473    1168.493
  C      665.453     217.550    1166.952
  O      665.142     218.262    1168.145
  C      666.906     217.822    1166.530
  O      667.017     219.230    1166.158
  C      667.943     217.556    1167.636
  O      669.166     217.160    1166.990
  C      668.089     218.930    1168.249
  O      669.218     219.007    1169.085
  C      668.055     219.800    1166.997
  N      667.792     221.203    1167.299
  C      668.826     221.904    1167.932
  O      669.875     221.327    1168.218
  N      668.630     223.228    1168.240
  C      667.486     223.773    1168.015
  N      667.343     225.087    1168.373
  C      666.349     223.065    1167.401
  C      666.566     221.785    1167.057
  O      663.315     219.505    1169.529
  O      662.951     218.874    1167.078
  H      669.354     219.944    1169.397
  H      662.236     219.529    1167.213
  H      665.401     223.568    1167.245
  H      665.801     221.178    1166.600
  H      669.016     219.741    1166.445
  H      667.218     219.162    1168.891
  H      667.619     216.783    1168.346
  H      667.117     217.224    1165.615
  H      668.153     225.533    1168.805
  H      664.766     217.884    1166.180
  H      666.485     225.618    1168.259
  H      665.315     216.468    1167.115
  P      669.608     215.611    1166.820
  C      671.555     215.994    1168.468
  O      671.147     215.467    1167.201
  O      669.232     215.025    1165.481
  O      668.843     214.833    1167.998
  H      668.646     213.932    1167.699
  H      672.605     215.834    1168.600
  H      671.018     215.499    1169.250
  H      671.348     217.043    1168.501

 6  7  8  9  10  11  12  13  14  15  16  26  30  31  32  33  35 0
 6-311+G(2d,p)
 ****
 37  38 0
 6-311+G(2d,p)
 ****
 1  2  3  4  5  17  18  19  20  21  22  23  24  25 0
 3-21G
 ****
 27  28  29  34  36  39  40  41  42  43  44  45  46 0
 3-21G
 ****


