%nproc=1
%NoSave
%Mem=1900MB
#P OB98/GEN NMR

erre ene a

0 1
  C      -44.371    -477.117     -70.258
  O      -44.063    -476.377     -71.421
  H      -45.456    -477.242     -70.203
  H      -44.038    -476.579     -69.368
  H      -43.907    -478.106     -70.290
  P      -42.524    -476.192     -71.831
  C      -42.358    -474.119     -70.310
  O      -42.168    -474.644     -71.618
  C      -42.223    -472.599     -70.336
  O      -40.856    -472.230     -70.632
  C      -43.066    -471.925     -71.409
  O      -44.433    -471.881     -71.047
  C      -42.380    -470.572     -71.504
  O      -42.829    -469.690     -70.469
  C      -40.895    -470.948     -71.296
  N      -40.156    -470.983     -72.557
  C      -39.997    -469.765     -73.209
  O      -40.428    -468.701     -72.775
  N      -39.368    -469.820     -74.425
  C      -39.025    -470.961     -75.092
  O      -38.695    -470.976     -76.274
  C      -39.160    -472.210     -74.329
  C      -39.723    -472.168     -73.119
  O      -42.138    -476.756     -73.158
  O      -41.730    -476.908     -70.638
  H      -41.431    -477.788     -70.935
  H      -42.375    -468.836     -70.629
  H      -39.285    -468.945     -74.924
  H      -38.830    -473.130     -74.796
  H      -39.865    -473.080     -72.551
  H      -40.409    -470.228     -70.625
  H      -42.576    -470.089     -72.462
  H      -42.945    -472.451     -72.362
  H      -42.473    -472.212     -69.341
  H      -41.595    -474.541     -69.646
  H      -43.349    -474.415     -69.948
  P      -45.541    -472.542     -71.995
  C      -45.330    -470.753     -73.826
  O      -46.195    -471.384     -72.888
  O      -46.522    -473.429     -71.303
  O      -44.687    -473.373     -73.066
  H      -45.044    -474.281     -73.118
  H      -45.872    -470.002     -74.362
  H      -44.957    -471.483     -74.514
  H      -44.511    -470.300     -73.307

 6  7  8  9  10  11  12  13  14  15  16  27  31  32  33  34  35 0
 6-311+G(2d,p)
 ****
 36  37 0
 6-311+G(2d,p)
 ****
 1  2  3  4  5  17  18  19  20  21  22  23  24  25 0
 3-21G
 ****
 26  28  29  30  38  39  40  41  42  43  44  45 0
 3-21G
 ****


