%nproc=1
%NoSave
%Mem=1900MB
#P OB98/GEN NMR

erre ene a

0 1
  C      482.575    -271.789    -327.743
  O      482.082    -272.776    -326.859
  P      481.566    -274.157    -327.490
  C      480.113    -274.626    -329.630
  O      480.454    -273.750    -328.567
  C      479.593    -273.829    -330.835
  O      480.704    -273.202    -331.515
  C      478.890    -274.665    -331.892
  O      477.568    -275.009    -331.507
  C      478.975    -273.739    -333.103
  O      477.952    -272.731    -333.033
  C      480.367    -273.100    -332.914
  N      481.394    -273.702    -333.755
  C      481.310    -273.438    -335.116
  O      480.428    -272.738    -335.613
  N      482.271    -274.024    -335.903
  C      483.251    -274.882    -335.469
  O      484.057    -275.409    -336.221
  C      483.269    -275.142    -334.028
  C      482.359    -274.553    -333.250
  O      480.736    -274.753    -326.254
  O      482.666    -275.028    -327.990
  H      480.394    -274.047    -325.677
  H      478.185    -272.052    -333.704
  H      482.241    -273.828    -336.892
  H      484.019    -275.827    -333.650
  H      482.353    -274.747    -332.180
  H      480.316    -272.025    -333.141
  H      478.843    -274.271    -334.048
  H      479.460    -275.579    -332.092
  H      478.931    -273.036    -330.461
  H      479.326    -275.315    -329.285
  H      480.989    -275.218    -329.909
  P      476.912    -276.287    -332.233
  C      475.719    -276.636    -334.528
  O      476.255    -275.738    -333.584
  O      475.661    -276.583    -331.274
  O      477.853    -277.436    -332.392
  H      475.202    -275.765    -330.993
  H      475.018    -276.093    -335.177
  H      475.177    -277.460    -334.040
  H      476.524    -277.047    -335.146
  H      482.881    -270.930    -327.184
  H      481.805    -271.511    -328.432
  H      483.412    -272.180    -328.283

 3  4  5  6  7  8  9  10  11  12  13  24  28  29  30  31  32 0
 6-311+G(2d,p)
 ****
 33  34 0
 6-311+G(2d,p)
 ****
 1  2  14  15  16  17  18  19  20  21  22  23  25  26  27 0
 3-21G
 ****
 35  36  37  38  39  40  41  42  43  44  45 0
 3-21G
 ****


