%nproc=1
%NoSave
%Mem=1900MB
#P OB98/GEN NMR

erre ene a

0 1
  C      -33.911    -892.053    -311.755
  O      -34.231    -892.933    -310.698
  H      -33.072    -892.463    -312.318
  H      -33.617    -891.073    -311.356
  H      -34.765    -891.933    -312.429
  P      -35.457    -892.513    -309.760
  C      -36.297    -894.973    -309.584
  O      -36.583    -893.623    -309.965
  C      -37.574    -895.683    -309.121
  O      -37.898    -895.233    -307.774
  C      -38.805    -895.383    -309.998
  O      -39.680    -896.533    -309.942
  C      -39.446    -894.213    -309.246
  O      -40.756    -893.983    -309.693
  C      -39.247    -894.693    -307.814
  N      -42.573    -891.613    -305.450
  C      -42.747    -892.623    -306.335
  N      -41.822    -893.403    -306.916
  C      -40.581    -893.083    -306.472
  C      -40.251    -892.113    -305.540
  C      -41.313    -891.353    -305.024
  N      -41.131    -890.333    -304.118
  N      -38.886    -892.073    -305.339
  C      -38.406    -893.033    -306.117
  N      -39.398    -893.653    -306.829
  O      -36.064    -891.223    -310.509
  O      -35.110    -892.223    -308.339
  H      -41.227    -893.383    -309.067
  H      -35.698    -890.413    -310.111
  H      -43.780    -892.813    -306.642
  H      -37.361    -893.293    -306.207
  H      -39.937    -895.513    -307.564
  H      -38.873    -893.283    -309.433
  H      -38.561    -895.153    -311.047
  H      -37.387    -896.753    -309.050
  H      -35.569    -894.953    -308.776
  H      -35.869    -895.503    -310.452
  H      -41.946    -889.813    -303.809
  H      -40.201    -890.093    -303.814
  P      -40.800    -896.723    -311.067
  C      -39.916    -899.183    -311.162
  O      -40.489    -898.083    -311.857
  O      -40.375    -895.613    -312.151
  O      -42.215    -896.533    -310.628
  H      -41.176    -895.343    -312.652
  H      -39.778    -900.000    -311.839
  H      -40.569    -899.483    -310.369
  H      -38.970    -898.894    -310.755

 6  7  8  9  10  11  12  13  14  15  25  28  32  33  34  35 0
 6-311+G(2d,p)
 ****
 36  37  40 0
 6-311+G(2d,p)
 ****
 1  2  3  4  5  16  17  18  19  20  21  22  23  24 0
 3-21G
 ****
 26  27  29  30  31  38  39 41  42  43  44  45  46  47  48 0
 3-21G
 ****


