%nproc=1
%NoSave
%Mem=1900MB
#P OB98/GEN NMR

erre ene a

0 1
  C      180.526     -17.388      82.217
  O      180.898     -18.359      83.171
  P      181.581     -19.738      82.730
  C      179.605     -21.317      83.225
  O      180.907     -20.895      83.621
  C      178.768     -21.684      84.456
  O      179.491     -22.687      85.231
  C      178.499     -20.477      85.376
  O      177.121     -20.273      85.697
  C      179.412     -20.749      86.562
  O      179.037     -20.069      87.745
  C      179.406     -22.281      86.611
  N      180.498     -22.818      87.420
  C      180.169     -23.318      88.677
  O      179.032     -23.347      89.139
  N      181.218     -23.747      89.442
  C      182.538     -23.620      89.136
  O      183.429     -23.934      89.912
  C      182.827     -23.047      87.811
  C      181.812     -22.700      87.015
  O      183.073     -19.747      82.741
  O      180.942     -20.016      81.288
  H      178.085     -20.227      87.892
  H      179.972     -20.094      81.278
  H      180.994     -24.112      90.357
  H      183.865     -22.924      87.544
  H      181.994     -22.274      86.034
  H      178.464     -22.666      87.006
  H      180.417     -20.397      86.298
  H      178.800     -19.539      84.895
  H      177.832     -22.126      84.102
  H      179.703     -22.196      82.583
  H      179.123     -20.530      82.636
  P      176.237     -19.029      85.211
  C      175.516     -18.199      87.565
  O      175.123     -18.744      86.322
  O      175.727     -19.122      83.812
  O      177.234     -17.783      85.365
  H      177.002     -17.100      84.710
  H      174.808     -18.528      88.334
  H      175.485     -17.109      87.509
  H      176.522     -18.522      87.851
  H      180.090     -16.547      82.715
  H      179.814     -17.809      81.538
  H      181.392     -17.071      81.674

 3  4  5  6  7  8  9  10  11  12  13  23  28  29  30  31  32 0
 6-311+G(2d,p)
 ****
 33  34 0
 6-311+G(2d,p)
 ****
 1  2  14  15  16  17  18  19  20  21  22  24  25  26  27 0
 3-21G
 ****
 35  36  37  38  39  40  41  42  43  44  45 0
 3-21G
 ****


