%nproc=1
%NoSave
%Mem=1900MB
#P OB98/GEN NMR

erre ene a

0 1
  C     -171.490     172.998     632.149
  O     -172.416     173.520     631.201
  P     -173.062     174.979     631.268
  C     -171.282     176.448     630.024
  O     -171.876     176.050     631.251
  C     -171.145     177.975     629.885
  O     -170.036     178.433     630.703
  C     -170.806     178.357     628.444
  O     -171.841     178.475     627.481
  C     -169.925     179.585     628.571
  O     -170.663     180.803     628.467
  C     -169.317     179.444     629.964
  N     -164.707     180.082     632.092
  C     -165.911     180.663     632.430
  N     -165.883     181.569     633.425
  N     -167.039     180.394     631.828
  C     -166.910     179.540     630.789
  C     -165.771     178.909     630.345
  C     -164.535     179.171     631.057
  O     -163.442     178.670     630.806
  N     -166.021     178.121     629.253
  C     -167.306     178.293     629.019
  N     -167.892     179.138     629.933
  O     -174.129     175.162     632.295
  O     -173.746     175.149     629.817
  H     -171.269     180.854     629.232
  H     -174.547     175.705     629.947
  H     -163.871     180.305     632.602
  H     -167.858     177.831     628.212
  H     -169.416     180.377     630.535
  H     -169.176     179.607     627.762
  H     -165.028     181.910     633.848
  H     -170.153     177.564     628.049
  H     -166.713     182.151     633.536
  H     -172.034     178.483     630.270
  H     -171.911     176.043     629.223
  H     -170.301     175.979     629.916
  P     -171.771     178.000     625.953
  C     -173.532     176.135     625.969
  O     -172.150     176.447     625.902
  O     -170.208     177.995     625.617
  O     -172.520     178.864     624.992
  H     -170.070     177.976     624.649
  H     -173.649     175.083     626.237
  H     -173.988     176.308     624.991
  H     -174.037     176.749     626.720
  H     -171.216     172.002     631.869
  H     -171.942     172.985     633.119
  H     -170.616     173.615     632.171

 3  4  5  6  7  8  9  10  11  12  23  26  30  31 0
 6-311+G(2d,p)
 ****
 33  35  36  37  38 0
 6-311+G(2d,p)
 ****
 1  2  13  14  15  16  17  18  19  20  21  22  24  25 0
 3-21G
 ****
 27  28  29  32  34  39  40  41  42  43  44  45  46  47  48  49 0
 3-21G
 ****


