%nproc=1
%NoSave
%Mem=1900MB
#P OB98/GEN NMR

erre ene a

0 1
  C      134.156    -119.276      44.102
  O      134.523    -119.935      42.879
  P      133.366    -120.463      41.896
  C      135.025    -120.228      39.887
  O      134.045    -121.012      40.551
  C      135.994    -121.133      39.121
  O      136.936    -121.750      40.029
  C      135.329    -122.292      38.393
  O      134.695    -121.872      37.197
  C      136.515    -123.219      38.157
  O      137.257    -122.821      36.992
  C      137.349    -123.000      39.435
  N      137.231    -124.105      40.381
  C      137.986    -125.239      40.105
  O      138.679    -125.359      39.095
  N      137.892    -126.255      41.016
  C      137.082    -126.275      42.116
  O      137.027    -127.225      42.886
  C      136.246    -125.082      42.310
  C      136.353    -124.071      41.446
  O      132.705    -119.090      41.395
  O      132.338    -121.347      42.520
  H      136.741    -123.119      36.217
  H      131.768    -119.243      41.169
  H      138.454    -127.075      40.851
  H      135.572    -125.066      43.157
  H      135.743    -123.183      41.576
  H      138.407    -122.874      39.177
  H      136.208    -124.258      38.001
  H      134.613    -122.788      39.057
  H      136.560    -120.509      38.417
  H      135.585    -119.649      40.626
  H      134.524    -119.535      39.204
  P      133.089    -121.912      37.179
  C      133.192    -119.636      35.898
  O      132.657    -120.939      35.983
  O      132.751    -121.103      38.518
  O      132.539    -123.299      37.134
  H      133.401    -120.402      38.698
  H      134.218    -119.597      36.271
  H      132.568    -118.951      36.478
  H      133.186    -119.321      34.851
  H      135.040    -118.991      44.633
  H      133.576    -119.942      44.706
  H      133.578    -118.404      43.878

 3  4  5  6  7  8  9  10  11  12  13  23  28  29  30  31  32 0
 6-311+G(2d,p)
 ****
 33  34 0
 6-311+G(2d,p)
 ****
 1  2  14  15  16  17  18  19  20  21  22  24  25  26 0
 3-21G
 ****
 27  35  36  37  38  39  40  41  42  43  44  45 0
 3-21G
 ****


