%nproc=1
%NoSave
%Mem=1900MB
#P OB98/GEN NMR

erre ene a

0 1
  C      299.508      42.642    1599.244
  O      298.370      42.590    1600.083
  H      300.407      42.582    1599.872
  H      299.533      43.577    1598.687
  H      299.517      41.787    1598.559
  P      296.922      42.763    1599.419
  C      296.649      40.195    1599.477
  O      296.577      41.379    1598.691
  C      296.147      38.986    1598.678
  O      294.728      39.142    1598.425
  C      296.833      38.822    1597.309
  O      296.847      37.414    1597.005
  C      295.857      39.544    1596.392
  O      296.107      39.256    1595.043
  C      294.527      39.105    1597.002
  N      293.408      39.943    1596.579
  C      292.277      39.272    1596.120
  O      292.258      38.035    1596.072
  N      291.204      40.008    1595.685
  C      291.284      41.299    1595.665
  N      290.194      41.981    1595.209
  C      292.481      42.049    1596.087
  C      293.509      41.312    1596.540
  O      296.747      43.979    1598.566
  O      295.923      42.782    1600.670
  H      296.280      38.296    1594.921
  H      295.615      43.694    1600.838
  H      292.514      43.133    1596.023
  H      294.433      41.764    1596.858
  H      294.301      38.060    1596.733
  H      295.988      40.641    1596.503
  H      297.855      39.213    1597.284
  H      296.264      38.072    1599.288
  H      289.389      41.427    1594.921
  H      296.020      40.339    1600.364
  H      290.145      42.981    1595.120
  H      297.685      40.019    1599.807
  P      298.167      36.633    1596.569
  C      298.467      35.107    1598.637
  O      298.986      36.194    1597.885
  O      299.006      37.350    1595.540
  O      297.664      35.224    1595.987
  H      298.289      34.933    1595.295
  H      299.101      34.920    1599.478
  H      298.426      34.234    1598.020
  H      297.482      35.348    1598.979

 6  7  8  9  10  11  12  13  14  15  16  26  30  31  32  33  35 0
 6-311+G(2d,p)
 ****
 37  38 0
 6-311+G(2d,p)
 ****
 1  2  3  4  5  17  18  19  20  21  22  23  24  25 0
 3-21G
 ****
 27  28  29  34  36  39  40  41  42  43  44  45  46 0
 3-21G
 ****


