%nproc=1
%NoSave
%Mem=1900MB
#P OB98/GEN NMR

erre ene a

0 1
  C       82.739     792.499      43.575
  O       83.665     793.560      43.465
  P       83.355     794.967      44.160
  C       84.518     794.761      46.460
  O       84.588     795.310      45.134
  C       85.829     794.094      46.833
  O       86.017     792.894      46.053
  C       87.058     794.943      46.571
  O       87.210     795.936      47.576
  C       88.161     793.889      46.563
  O       88.560     793.554      47.901
  C       87.451     792.698      45.897
  N       89.714     789.663      42.472
  C       89.668     789.631      43.828
  N       89.082     790.497      44.681
  C       88.490     791.493      43.991
  C       88.491     791.696      42.605
  C       89.118     790.699      41.833
  N       89.109     790.688      40.454
  N       87.825     792.863      42.296
  C       87.444     793.368      43.449
  N       87.783     792.550      44.497
  O       81.998     795.092      44.789
  O       83.535     796.029      42.976
  H       89.010     794.349      48.275
  H       82.700     796.506      42.838
  H       90.173     788.780      44.287
  H       86.926     794.321      43.589
  H       87.690     791.753      46.385
  H       89.057     794.213      46.030
  H       87.003     795.405      45.581
  H       85.783     793.795      47.891
  H       83.693     794.040      46.497
  H       89.459     789.870      39.993
  H       88.423     791.280      39.963
  H       84.289     795.582      47.165
  P       87.976     797.307      47.229
  C       85.774     798.546      47.637
  O       87.146     798.472      47.950
  O       88.284     797.527      45.799
  O       89.312     797.222      48.123
  H       90.035     797.695      47.662
  H       85.625     799.029      46.656
  H       85.262     799.177      48.395
  H       85.313     797.552      47.644
  H       83.113     791.644      43.051
  H       81.803     792.797      43.150
  H       82.600     792.253      44.607

 3  4  5  6  7  8  9  10  11  12  22  25  29  30  31  32 0
 6-311+G(2d,p)
 ****
 33  36  37 0
 6-311+G(2d,p)
 ****
 1  2  13  14  15  16  17  18  19  20  21  23  24  26 0
 3-21G
 ****
 27  28  34  35  38  39  40  41  42  43  44  45  46  47  48 0
 3-21G
 ****


