%nproc=1
%NoSave
%Mem=1900MB
#P OB98/GEN NMR

erre ene a

0 1
  C       59.511     114.273     -88.331
  O       58.700     115.273     -87.752
  P       59.145     116.814     -87.741
  C       59.245     118.576     -89.612
  O       59.396     117.205     -89.280
  C       60.388     119.062     -90.507
  O       61.635     119.039     -89.758
  C       60.598     118.233     -91.782
  O       61.037     119.148     -92.789
  C       61.725     117.300     -91.382
  O       62.394     116.736     -92.503
  C       62.571     118.231     -90.503
  N       63.474     117.488     -89.632
  C       64.730     117.172     -90.151
  O       65.006     117.447     -91.322
  N       65.628     116.502     -89.358
  C       65.259     116.092     -88.183
  N       66.190     115.437     -87.440
  C       63.901     116.295     -87.647
  C       63.073     117.006     -88.406
  O       60.266     117.145     -86.817
  O       57.789     117.594     -87.404
  H       61.723     116.322     -93.087
  H       57.583     117.527     -86.439
  H       63.622     115.886     -86.686
  H       62.056     117.208     -88.097
  H       63.169     118.910     -91.124
  H       61.324     116.474     -90.782
  H       59.704     117.697     -92.108
  H       60.188     120.107     -90.771
  H       67.115     115.333     -87.841
  H       59.258     119.153     -88.683
  H       66.034     115.153     -86.485
  H       58.276     118.740     -90.094
  P       60.861     118.819     -94.349
  C       58.906     118.430     -95.952
  O       59.302     118.566     -94.600
  O       61.765     117.753     -94.876
  O       61.127     120.222     -95.081
  H       61.288     120.065     -96.032
  H       57.906     117.990     -95.988
  H       59.598     117.785     -96.502
  H       58.877     119.416     -96.425
  H       59.031     113.322     -88.231
  H       60.458     114.249     -87.833
  H       59.659     114.490     -89.368

 3  4  5  6  7  8  9  10  11  12  13  23  27  28  29  30  32 0
 6-311+G(2d,p)
 ****
 34  35 0
 6-311+G(2d,p)
 ****
 1  2  14  15  16  17  18  19  20  21  22  24  25  26 0
 3-21G
 ****
 31  33  36  37  38  39  40  41  42  43  44  45  46 0
 3-21G
 ****


