%nproc=1
%NoSave
%Mem=1900MB
#P OB98/GEN NMR

erre ene a

0 1
  C      108.040     242.839    -192.333
  O      109.087     242.534    -193.232
  H      107.495     241.920    -192.105
  H      107.351     243.553    -192.793
  H      108.442     243.253    -191.404
  P      110.125     243.715    -193.559
  C      108.949     244.709    -195.687
  O      109.272     244.844    -194.314
  C      108.138     245.912    -196.170
  O      108.938     247.110    -196.001
  C      107.730     245.828    -197.642
  O      106.438     246.420    -197.788
  C      108.763     246.695    -198.342
  O      108.295     247.180    -199.597
  C      109.017     247.775    -197.278
  N      110.304     248.444    -197.459
  C      110.263     249.788    -197.841
  O      109.182     250.350    -198.024
  N      111.443     250.454    -198.051
  C      112.568     249.817    -197.951
  N      113.702     250.527    -198.196
  C      112.657     248.388    -197.594
  C      111.499     247.773    -197.354
  O      111.008     243.063    -194.724
  O      110.910     244.190    -192.383
  H      108.969     247.792    -199.966
  H      110.481     242.599    -195.395
  H      113.617     247.898    -197.534
  H      111.471     246.726    -197.077
  H      108.226     248.536    -197.306
  H      109.678     246.119    -198.523
  H      107.712     244.803    -198.018
  H      107.260     246.023    -195.524
  H      113.595     251.498    -198.461
  H      108.374     243.793    -195.854
  H      114.626     250.121    -198.202
  H      109.885     244.630    -196.249
  P      105.137     245.490    -197.767
  C      104.145     246.027    -200.094
  O      104.770     245.055    -199.265
  O      103.994     245.993    -196.953
  O      105.698     244.117    -197.143
  H      105.024     243.775    -196.523
  H      103.958     245.605    -201.059
  H      104.788     246.876    -200.195
  H      103.219     246.331    -199.652

 6  7  8  9  10  11  12  13  14  15  16  26  30  31  32  33  35 0
 6-311+G(2d,p)
 ****
 37  38 0
 6-311+G(2d,p)
 ****
 1  2  3  4  5  17  18  19  20  21  22  23  24  25 0
 3-21G
 ****
 27  28  29  34  36  39  40  41  42  43  44  45  46 0
 3-21G
 ****


