%nproc=1
%NoSave
%Mem=1900MB
#P OB98/GEN NMR

erre ene a

0 1
  C     -896.740    -402.053    1759.461
  O     -897.660    -403.128    1759.381
  H     -896.600    -401.790    1760.513
  H     -897.150    -401.182    1758.939
  H     -895.780    -402.329    1759.021
  P     -897.940    -403.722    1757.920
  C     -897.770    -406.246    1758.489
  O     -897.170    -405.130    1757.842
  C     -896.980    -406.652    1759.722
  O     -896.930    -405.517    1760.651
  C     -897.560    -407.853    1760.505
  O     -896.460    -408.613    1761.026
  C     -898.290    -407.185    1761.652
  O     -898.480    -408.066    1762.749
  C     -897.340    -406.024    1761.946
  N     -899.180    -405.012    1766.507
  C     -898.560    -406.141    1766.029
  N     -898.410    -407.159    1766.898
  N     -898.120    -406.261    1764.801
  C     -898.320    -405.144    1764.057
  C     -898.920    -403.970    1764.409
  C     -899.440    -403.864    1765.768
  O     -900.000    -402.888    1766.249
  N     -898.960    -403.089    1763.361
  C     -898.370    -403.729    1762.361
  N     -897.960    -404.994    1762.741
  O     -897.080    -402.766    1756.969
  O     -899.380    -403.756    1757.514
  H     -897.600    -408.212    1763.188
  H     -897.630    -402.033    1756.636
  H     -899.510    -404.967    1767.462
  H     -898.210    -403.348    1761.373
  H     -896.440    -406.346    1762.480
  H     -899.270    -406.824    1761.328
  H     -898.660    -407.130    1767.856
  H     -898.200    -408.504    1759.900
  H     -897.900    -407.985    1766.569
  H     -895.930    -406.846    1759.417
  H     -897.800    -407.091    1757.788
  H     -898.820    -405.992    1758.775
  P     -896.300    -410.130    1760.557
  C     -893.750    -410.473    1760.146
  O     -895.030    -410.225    1759.584
  O     -897.530    -410.323    1759.557
  O     -896.320    -411.121    1761.688
  H     -897.810    -411.267    1759.564
  H     -893.018    -410.506    1759.366
  H     -893.763    -411.410    1760.663
  H     -893.504    -409.690    1760.833

 6  7  8  9  10  11  12  13  14  15  26  29  33  34 0
 6-311+G(2d,p)
 ****
 36  38  39  40  41 0
 6-311+G(2d,p)
 ****
 1  2  3  4  5  16  17  18  19  20  21  22  23  24  25 0
 3-21G
 ****
 27  28  30  31  32  35  37  42  43  44  45  46  47 0
 3-21G
 ****
 48  49 0
 3-21G
 ****


