%nproc=1
%NoSave
%Mem=1900MB
#P OB98/GEN NMR

erre ene a

0 1
  C      -64.532      34.835     131.231
  O      -64.051      35.460     130.051
  P      -64.046      37.064     130.005
  C      -62.264      37.071     128.129
  O      -63.568      37.476     128.529
  C      -61.615      38.130     127.244
  O      -62.281      38.134     125.951
  C      -61.688      39.557     127.807
  O      -60.422      40.205     127.619
  C      -62.695      40.244     126.901
  O      -62.500      41.653     126.857
  C      -62.422      39.521     125.583
  N      -63.560      41.761     121.201
  C      -62.336      41.602     121.819
  N      -61.275      42.173     121.207
  N      -62.165      40.948     122.937
  C      -63.308      40.404     123.420
  C      -64.578      40.482     122.895
  C      -64.761      41.261     121.688
  O      -65.832      41.514     121.142
  N      -65.478      39.787     123.661
  C      -64.759      39.291     124.649
  N      -63.444      39.678     124.574
  O      -62.795      37.442     130.930
  O      -65.292      37.720     130.488
  H      -62.433      41.963     127.779
  H      -63.084      38.039     131.648
  H      -63.638      42.288     120.349
  H      -65.148      38.678     125.453
  H      -61.471      39.859     125.150
  H      -63.708      40.043     127.271
  H      -61.329      42.659     120.326
  H      -61.977      39.610     128.863
  H      -60.364      42.049     121.633
  H      -60.571      37.839     127.063
  H      -62.336      36.131     127.572
  H      -61.656      36.905     129.025
  P      -59.913      41.121     128.837
  C      -57.724      39.712     128.915
  O      -58.317      40.994     128.840
  O      -60.365      40.298     130.133
  O      -60.461      42.510     128.820
  H      -60.467      40.894     130.897
  H      -58.458      38.909     128.802
  H      -57.232      39.605     129.886
  H      -56.975      39.619     128.125
  H      -64.477      33.772     131.120
  H      -65.549      35.124     131.399
  H      -63.933      35.138     132.064

 3  4  5  6  7  8  9  10  11  12  23  26  30  31  33  0
 6-311+G(2d,p)
 ****
 35  36  37  38 0
 6-311+G(2d,p)
 ****
 1  2  13  14  15  16  17  18  19  20  21  22  24  25  27  28  29 0
 3-21G
 ****
 32  34  39  40  41  42  43  44  45  46  47  48  49 0
 3-21G
 ****


