%nproc=1
%NoSave
%Mem=1900MB
#P OB98/GEN NMR

erre ene a

0 1
  C       13.061     578.918    -471.518
  O       14.347     578.518    -471.070
  P       15.478     579.592    -470.697
  C       16.020     577.742    -468.972
  O       16.521     578.811    -469.763
  C       17.187     576.899    -468.423
  O       17.762     576.138    -469.503
  C       18.312     577.718    -467.781
  O       18.831     576.953    -466.677
  C       19.335     577.820    -468.887
  O       20.643     578.089    -468.416
  C       19.181     576.436    -469.556
  N       19.679     576.423    -470.930
  C       21.014     576.054    -471.111
  O       21.741     575.790    -470.157
  N       21.506     575.990    -472.400
  C       20.745     576.344    -473.390
  N       21.253     576.219    -474.656
  C       19.364     576.835    -473.223
  C       18.898     576.821    -471.985
  O       14.965     580.872    -470.126
  O       16.317     579.775    -472.043
  H       20.898     577.373    -467.784
  H       15.919     580.437    -472.662
  H       18.788     577.150    -474.088
  H       17.894     577.134    -471.764
  H       19.696     575.667    -468.959
  H       19.061     578.624    -469.580
  H       17.968     578.689    -467.411
  H       16.777     576.188    -467.700
  H       22.141     575.726    -474.739
  H       15.394     577.110    -469.607
  H       20.641     576.155    -475.462
  H       15.410     578.141    -468.156
  P       18.640     577.545    -465.188
  C       17.751     575.199    -464.460
  O       18.611     576.296    -464.177
  O       17.096     577.978    -465.205
  O       19.496     578.698    -464.808
  H       16.955     578.694    -464.555
  H       17.871     574.438    -463.681
  H       18.027     574.743    -465.422
  H       16.715     575.530    -464.490
  H       12.465     578.051    -471.710
  H       13.158     579.490    -472.417
  H       12.590     579.515    -470.765

 3  4  5  6  7  8  9  10  11  12  13  23  27  28  29  30  32 0
 6-311+G(2d,p)
 ****
 34  35 0
 6-311+G(2d,p)
 ****
 1  2  14  15  16  17  18  19  20  21  22  24  25  26 0
 3-21G
 ****
 31  33  36  37  38  39  40  41  42  43  44  45  46 0
 3-21G
 ****


