%nproc=1
%NoSave
%Mem=1900MB
#P OB98/GEN NMR

erre ene a

0 1
  C     -483.610    -500.065     181.019
  O     -484.095    -498.769     180.738
  H     -483.114    -500.045     181.994
  H     -482.880    -500.356     180.260
  H     -484.420    -500.799     181.054
  P     -485.225    -498.597     179.616
  C     -483.809    -498.441     177.466
  O     -484.599    -497.735     178.418
  C     -483.522    -497.594     176.221
  O     -484.735    -497.405     175.460
  C     -483.023    -496.186     176.577
  O     -481.635    -496.087     176.830
  C     -483.414    -495.397     175.330
  O     -482.401    -495.512     174.317
  C     -484.704    -496.089     174.878
  N     -488.267    -492.693     173.494
  C     -487.148    -493.115     172.796
  N     -486.920    -492.510     171.608
  N     -486.323    -494.028     173.239
  C     -486.628    -494.472     174.485
  C     -487.696    -494.126     175.275
  C     -488.633    -493.151     174.754
  O     -489.639    -492.742     175.329
  N     -487.672    -494.793     176.475
  C     -486.555    -495.484     176.439
  N     -485.898    -495.342     175.239
  O     -486.262    -497.565     180.281
  O     -485.917    -499.862     179.205
  H     -481.534    -495.338     174.729
  H     -487.151    -497.700     179.906
  H     -488.883    -492.010     173.090
  H     -486.191    -496.119     177.244
  H     -484.727    -496.223     173.786
  H     -483.531    -494.332     175.546
  H     -487.461    -491.720     171.281
  H     -483.589    -495.787     177.425
  H     -485.988    -492.592     171.207
  H     -482.815    -498.124     175.576
  H     -484.373    -499.330     177.186
  H     -482.874    -498.774     177.921
  P     -481.123    -495.714     178.305
  C     -480.783    -493.168     177.888
  O     -480.187    -494.416     178.153
  O     -480.084    -496.893     178.621
  O     -482.184    -495.612     179.336
  H     -480.521    -497.591     179.146
  H     -480.023    -492.418     177.818
  H     -481.457    -492.919     178.681
  H     -481.321    -493.219     176.965

 6  7  8  9  10  11  12  13  14  15  26  29  33  34 0
 6-311+G(2d,p)
 ****
 36  38  39  40  41 0
 6-311+G(2d,p)
 ****
 1  2  3  4  5  16  17  18  19  20  21  22  23  24  25 0
 3-21G
 ****
 27  28  30  31  32  35  37  42  43  44  45  46  47 0
 3-21G
 ****
 48  49 0
 3-21G
 ****


