%nproc=1
%NoSave
%Mem=1900MB
#P OB98/GEN NMR

erre ene a

0 1
  C      555.904    -314.029    -390.889
  O      554.642    -314.039    -390.275
  P      553.568    -315.215    -390.496
  C      551.399    -314.621    -391.819
  O      552.794    -314.937    -391.877
  C      551.132    -313.155    -391.480
  O      551.943    -312.305    -392.325
  C      549.670    -312.805    -391.785
  O      548.653    -313.078    -390.849
  C      549.716    -311.353    -392.280
  O      549.372    -310.416    -391.270
  C      551.172    -311.170    -392.717
  N      549.893    -308.387    -396.764
  C      549.755    -308.078    -395.420
  N      549.001    -306.983    -395.137
  N      550.268    -308.802    -394.462
  C      550.908    -309.910    -394.914
  C      551.140    -310.300    -396.200
  C      550.592    -309.472    -397.256
  O      550.629    -309.737    -398.453
  N      551.754    -311.510    -396.266
  C      551.882    -311.889    -395.011
  N      551.335    -310.961    -394.155
  O      552.782    -315.637    -389.292
  O      554.534    -316.455    -390.891
  H      550.099    -310.371    -390.613
  H      554.139    -317.257    -390.524
  H      549.404    -307.825    -397.457
  H      552.303    -312.834    -394.678
  H      551.617    -310.292    -392.221
  H      548.989    -311.205    -393.093
  H      548.479    -306.496    -395.833
  H      549.386    -313.389    -392.668
  H      548.742    -306.829    -394.159
  H      551.436    -312.913    -390.443
  H      550.956    -315.283    -391.054
  H      550.938    -314.869    -392.768
  P      547.102    -313.263    -391.161
  C      545.555    -311.454    -390.199
  O      546.421    -311.817    -391.273
  O      546.483    -313.868    -389.804
  O      546.797    -314.188    -392.296
  H      545.644    -314.324    -389.985
  H      544.949    -310.613    -390.510
  H      546.161    -311.167    -389.328
  H      544.913    -312.299    -389.915
  H      556.438    -313.151    -390.592
  H      555.783    -314.031    -391.952
  H      556.453    -314.898    -390.591

 3  4  5  6  7  8  9  10  11  12  23  26  30  31 0
 6-311+G(2d,p)
 ****
 33  35  36  37  38 0
 6-311+G(2d,p)
 ****
 1  2  13  14  15  16  17  18  19  20  21  22  24  25 0
 3-21G
 ****
 27  28  29  32  34  39  40  41  42  43  44  45  46  47  48  49 0
 3-21G
 ****


