%nproc=1
%NoSave
%Mem=1900MB
#P OB98/GEN NMR

erre ene a

0 1
  C       89.938    -166.777     -13.641
  O       88.796    -167.373     -13.067
  H       90.335    -167.452     -14.406
  H       90.712    -166.616     -12.886
  H       89.675    -165.825     -14.115
  P       88.118    -166.687     -11.780
  C       89.867    -167.557     -10.116
  O       89.346    -166.406     -10.768
  C       90.758    -167.173      -8.930
  O       92.097    -166.869      -9.406
  C       90.254    -165.955      -8.146
  O       90.307    -166.238      -6.743
  C       91.251    -164.861      -8.501
  O       91.313    -163.841      -7.506
  C       92.531    -165.683      -8.709
  N       93.558    -164.961      -9.454
  C       94.487    -164.233      -8.699
  O       94.388    -164.193      -7.471
  N       95.472    -163.540      -9.350
  C       95.503    -163.526     -10.645
  N       96.503    -162.809     -11.233
  C       94.520    -164.240     -11.488
  C       93.587    -164.939     -10.830
  O       86.980    -167.451     -11.189
  O       87.719    -165.216     -12.272
  H       92.012    -163.198      -7.765
  H       87.030    -164.843     -11.667
  H       94.578    -164.192     -12.564
  H       92.827    -165.502     -11.365
  H       92.958    -165.990      -7.743
  H       90.954    -164.390      -9.448
  H       89.238    -165.669      -8.402
  H       90.860    -168.055      -8.278
  H       97.158    -162.335     -10.622
  H       90.435    -168.147     -10.844
  H       96.622    -162.722     -12.233
  H       89.025    -168.154      -9.748
  P       88.916    -166.654      -6.054
  C       88.762    -164.179      -5.292
  O       88.069    -165.312      -5.800
  O       89.360    -167.112      -4.586
  O       88.186    -167.740      -6.778
  H       89.398    -168.087      -4.535
  H       88.077    -163.365      -5.174
  H       89.535    -163.898      -5.976
  H       89.195    -164.421      -4.344

 6  7  8  9  10  11  12  13  14  15  16  26  30  31  32  33  35 0
 6-311+G(2d,p)
 ****
 37  38 0
 6-311+G(2d,p)
 ****
 1  2  3  4  5  17  18  19  20  21  22  23  24  25 0
 3-21G
 ****
 27  28  29  34  36  39  40  41  42  43  44  45  46 0
 3-21G
 ****


