%nproc=1
%NoSave
%Mem=1900MB
#P OB98/GEN NMR

erre ene a

0 1
  C      381.658     186.377    -452.615
  O      381.415     187.182    -453.752
  H      382.551     186.749    -452.107
  H      381.831     185.339    -452.911
  H      380.813     186.429    -451.921
  P      380.152     186.833    -454.673
  C      378.535     188.216    -453.208
  O      379.124     188.052    -454.491
  C      377.821     189.558    -453.127
  O      378.778     190.632    -453.075
  C      376.908     189.850    -454.319
  O      375.666     189.188    -454.163
  C      376.801     191.362    -454.220
  O      375.891     191.717    -453.165
  C      378.238     191.749    -453.835
  N      379.364     194.949    -457.604
  C      378.339     194.994    -456.674
  N      377.466     196.019    -456.800
  N      378.176     194.107    -455.730
  C      379.085     193.105    -455.774
  C      380.130     192.943    -456.651
  C      380.339     193.962    -457.661
  O      381.239     193.969    -458.489
  N      380.799     191.766    -456.426
  C      380.177     191.238    -455.386
  N      379.120     192.005    -454.964
  O      379.532     185.483    -454.464
  O      380.692     187.023    -456.164
  H      375.020     191.355    -453.412
  H      381.027     186.182    -456.528
  H      379.426     195.652    -458.321
  H      380.457     190.308    -454.906
  H      378.273     192.636    -453.192
  H      376.436     191.827    -455.135
  H      377.383     196.547    -457.660
  H      377.391     189.596    -455.271
  H      376.681     196.042    -456.162
  H      377.256     189.584    -452.186
  H      379.339     188.160    -452.465
  H      377.822     187.408    -453.011
  P      374.646     189.039    -455.395
  C      375.648     186.691    -455.808
  O      374.468     187.461    -455.598
  O      375.039     189.782    -456.628
  O      373.228     189.475    -454.803
  H      373.054     190.442    -454.874
  H      375.385     185.661    -455.928
  H      376.298     186.798    -454.965
  H      376.147     187.036    -456.689

 6  7  8  9  10  11  12  13  14  15  26  29  33  34 0
 6-311+G(2d,p)
 ****
 36  38  39  40  41 0
 6-311+G(2d,p)
 ****
 1  2  3  4  5  16  17  18  19  20  21  22  23  24  25 0
 3-21G
 ****
 27  28  30  31  32  35  37  42  43  44  45  46  47 0
 3-21G
 ****
 48  49 0
 3-21G
 ****


