%nproc=1
%NoSave
%Mem=1900MB
#P OB98/GEN NMR

erre ene a

0 1
  C      572.452    -120.795    -191.195
  O      572.788    -121.240    -192.514
  P      572.573    -122.799    -192.846
  C      570.913    -122.322    -194.786
  O      571.141    -122.983    -193.551
  C      569.579    -122.753    -195.411
  O      569.581    -124.180    -195.698
  C      568.365    -122.486    -194.515
  O      567.232    -122.236    -195.352
  C      568.167    -123.817    -193.818
  O      566.856    -123.935    -193.264
  C      568.496    -124.776    -194.962
  N      566.675    -129.255    -193.529
  C      566.013    -128.106    -193.914
  N      564.662    -128.175    -193.959
  N      566.610    -126.989    -194.232
  C      567.964    -127.086    -194.175
  C      568.736    -128.161    -193.801
  C      568.054    -129.381    -193.429
  O      568.588    -130.424    -193.065
  N      570.077    -127.856    -193.848
  C      570.111    -126.601    -194.242
  N      568.859    -126.098    -194.491
  O      572.364    -123.445    -191.395
  O      573.724    -123.425    -193.559
  H      566.214    -123.779    -193.991
  H      573.151    -123.970    -191.156
  H      566.156    -130.082    -193.284
  H      571.000    -126.007    -194.366
  H      567.647    -124.905    -195.648
  H      568.899    -123.924    -192.998
  H      564.135    -129.014    -193.780
  H      568.486    -121.654    -193.814
  H      564.151    -127.363    -194.274
  H      569.456    -122.228    -196.368
  H      571.727    -122.533    -195.485
  H      570.944    -121.240    -194.617
  P      566.973    -120.715    -195.792
  C      567.870    -121.256    -198.163
  O      567.960    -120.428    -197.024
  O      567.607    -119.863    -194.600
  O      565.536    -120.372    -196.024
  H      567.188    -118.991    -194.538
  H      567.347    -120.717    -198.959
  H      567.347    -122.191    -197.961
  H      568.888    -121.490    -198.508
  H      572.643    -119.745    -191.113
  H      573.046    -121.322    -190.478
  H      571.416    -120.985    -191.008

 3  4  5  6  7  8  9  10  11  12  23  26  30  31 0
 6-311+G(2d,p)
 ****
 33  35  36  37  38 0
 6-311+G(2d,p)
 ****
 1  2  13  14  15  16  17  18  19  20  21  22  24  25 0
 3-21G
 ****
 27  28  29  32  34  39  40  41  42  43  44  45  46  47  48  49 0
 3-21G
 ****


