%nproc=1
%NoSave
%Mem=1900MB
#P OB98/GEN NMR

erre ene a

0 1
  C     -198.622     156.841    -117.252
  O     -199.454     156.717    -116.095
  P     -200.880     157.457    -116.086
  C     -200.127     159.709    -115.077
  O     -200.880     158.519    -114.878
  C     -200.842     160.913    -114.471
  O     -202.045     161.244    -115.199
  C     -201.289     160.687    -113.032
  O     -200.185     160.740    -112.143
  C     -202.321     161.797    -112.859
  O     -201.683     163.047    -112.545
  C     -202.958     161.860    -114.271
  N     -204.279     161.251    -114.330
  C     -205.275     161.876    -113.576
  O     -205.013     162.859    -112.882
  N     -206.549     161.361    -113.621
  C     -206.802     160.308    -114.340
  N     -208.085     159.847    -114.347
  C     -205.772     159.610    -115.140
  C     -204.547     160.125    -115.077
  O     -202.074     156.557    -116.147
  O     -200.799     158.398    -117.382
  H     -202.409     163.700    -112.459
  H     -201.698     158.517    -117.739
  H     -206.029     158.743    -115.731
  H     -203.723     159.675    -115.635
  H     -203.061     162.911    -114.589
  H     -203.020     161.577    -112.048
  H     -201.781     159.708    -112.956
  H     -200.158     161.777    -114.519
  H     -208.763     160.332    -113.785
  H     -199.974     159.866    -116.153
  H     -208.386     159.063    -114.914
  H     -199.132     159.576    -114.641
  P     -199.641     159.352    -111.553
  C     -201.054     159.795    -109.417
  O     -199.804     159.407    -109.959
  O     -198.052     159.468    -111.762
  O     -200.185     158.128    -112.224
  H     -197.687     158.586    -111.950
  H     -201.103     159.477    -108.374
  H     -201.882     159.335    -109.965
  H     -201.146     160.884    -109.466
  H     -197.715     156.294    -117.099
  H     -198.393     157.873    -117.417
  H     -199.136     156.449    -118.105

 3  4  5  6  7  8  9  10  11  12  13  23  27  28  29  30  32 0
 6-311+G(2d,p)
 ****
 34  35 0
 6-311+G(2d,p)
 ****
 1  2  14  15  16  17  18  19  20  21  22  24  25  26 0
 3-21G
 ****
 31  33  36  37  38  39  40  41  42  43  44  45  46 0
 3-21G
 ****


