%nproc=1
%NoSave
%Mem=1900MB
#P OB98/GEN NMR

erre ene a

0 1
  C     1113.024     724.076    -497.100
  O     1113.346     725.095    -496.167
  P     1114.452     724.746    -495.034
  C     1115.745     726.912    -495.680
  O     1115.138     726.137    -494.648
  C     1116.331     728.208    -495.102
  O     1115.254     729.059    -494.653
  C     1117.276     728.013    -493.893
  O     1118.275     729.032    -493.972
  C     1116.376     728.244    -492.701
  O     1117.098     728.571    -491.528
  C     1115.471     729.338    -493.251
  N     1112.909     731.558    -489.492
  C     1114.223     731.717    -489.847
  N     1114.938     732.598    -489.152
  N     1114.797     731.028    -490.813
  C     1113.932     730.174    -491.445
  C     1112.616     729.935    -491.138
  C     1112.000     730.706    -490.114
  O     1110.809     730.679    -489.795
  N     1112.103     728.917    -491.958
  C     1113.099     728.642    -492.775
  N     1114.206     729.393    -492.531
  O     1115.575     723.974    -495.868
  O     1113.930     723.979    -493.852
  H     1117.538     727.766    -491.209
  H     1115.423     723.001    -495.821
  H     1112.508     732.120    -488.751
  H     1113.055     727.895    -493.564
  H     1115.937     730.344    -493.164
  H     1115.801     727.337    -492.503
  H     1114.583     733.172    -488.415
  H     1117.755     727.024    -493.897
  H     1115.931     732.727    -489.402
  H     1116.854     728.736    -495.907
  H     1114.980     727.195    -496.421
  H     1116.526     726.321    -496.195
  P     1119.660     728.815    -493.224
  C     1121.391     729.234    -495.091
  O     1120.761     729.723    -493.917
  O     1120.079     727.332    -493.650
  O     1119.580     728.918    -491.725
  H     1120.571     726.902    -492.924
  H     1121.792     730.077    -495.668
  H     1120.713     728.677    -495.714
  H     1122.224     728.575    -494.793
  H     1112.287     724.440    -497.785
  H     1112.638     723.225    -496.579
  H     1113.904     723.795    -497.640

 3  4  5  6  7  8  9  10  11  12  23  26  30  31 0
 6-311+G(2d,p)
 ****
 33  35  36  37  38 0
 6-311+G(2d,p)
 ****
 1  2  13  14  15  16  17  18  19  20  21  22  24  25 0
 3-21G
 ****
 27  28  29  32  34  39  40  41  42  43  44  45  46  47  48  49 0
 3-21G
 ****


