%nproc=1
%NoSave
%Mem=1900MB
#P OB98/GEN NMR

erre ene a

0 1
  C      426.329      64.632    -405.857
  O      425.374      64.401    -406.896
  P      424.601      65.677    -407.503
  C      422.140      64.784    -407.420
  O      423.271      65.151    -408.197
  C      421.306      63.700    -408.146
  O      420.467      64.359    -409.133
  C      422.113      62.677    -408.918
  O      421.274      61.528    -409.178
  C      422.377      63.390    -410.228
  O      422.739      62.487    -411.267
  C      421.043      64.152    -410.456
  N      421.221      65.462    -411.127
  C      420.723      65.613    -412.415
  O      420.147      64.717    -413.047
  N      420.930      66.825    -413.014
  C      421.550      67.907    -412.437
  O      421.796      68.945    -413.046
  C      421.930      67.754    -411.019
  C      421.759      66.556    -410.460
  O      425.550      66.135    -408.713
  O      424.407      66.783    -406.508
  H      423.618      62.114    -411.017
  H      426.037      66.942    -408.467
  H      420.639      66.923    -413.979
  H      422.347      68.608    -410.527
  H      422.051      66.421    -409.410
  H      420.340      63.573    -411.060
  H      423.190      64.100    -410.108
  H      423.030      62.345    -408.438
  H      420.645      63.218    -407.421
  H      421.528      65.655    -407.203
  H      422.480      64.382    -406.455
  P      421.635      60.145    -408.428
  C      420.962      58.586    -410.343
  O      420.658      59.033    -409.032
  O      421.707      60.210    -406.939
  O      423.061      59.760    -409.084
  H      423.527      59.115    -408.504
  H      420.622      57.544    -410.454
  H      422.029      58.627    -410.563
  H      420.405      59.199    -411.065
  H      426.759      63.700    -405.554
  H      425.843      65.088    -405.020
  H      427.100      65.280    -406.219

 3  4  5  6  7  8  9  10  11  12  13  23  28  29  30  31  32 0
 6-311+G(2d,p)
 ****
 33  34 0
 6-311+G(2d,p)
 ****
 1  2  14  15  16  17  18  19  20  21  22  24  25  26  27 0
 3-21G
 ****
 35  36  37  38  39  40  41  42  43  44  45 0
 3-21G
 ****


