%nproc=1
%NoSave
%Mem=1900MB
#P OB98/GEN NMR

erre ene a

0 1
  C      -12.152     -56.839     139.587
  O      -11.635     -58.101     139.944
  P      -10.212     -58.602     139.407
  C      -11.293     -59.687     137.336
  O      -10.492     -59.895     138.494
  C      -11.610     -61.027     136.661
  O      -12.384     -60.767     135.449
  C      -10.343     -61.808     136.257
  O      -10.305     -63.155     136.730
  C      -10.318     -61.646     134.746
  O       -9.549     -62.626     134.075
  C      -11.813     -61.592     134.414
  N      -12.071     -61.065     133.076
  C      -11.863     -61.928     132.004
  O      -11.492     -63.092     132.112
  N      -12.039     -61.389     130.760
  C      -12.280     -60.077     130.482
  O      -12.327     -59.644     129.339
  C      -12.450     -59.205     131.654
  C      -12.364     -59.731     132.878
  O       -9.169     -58.804     140.454
  O       -9.831     -57.498     138.311
  H       -9.785     -63.497     134.444
  H      -10.464     -57.414     137.578
  H      -11.891     -62.003     129.974
  H      -12.632     -58.157     131.464
  H      -12.485     -59.113     133.761
  H      -12.275     -62.576     134.491
  H       -9.860     -60.674     134.522
  H       -9.445     -61.351     136.688
  H      -12.230     -61.609     137.350
  H      -10.742     -59.056     136.635
  H      -12.210     -59.154     137.609
  P       -8.995     -63.903     137.265
  C       -9.064     -65.821     135.510
  O       -9.109     -65.450     136.873
  O       -8.649     -63.637     138.692
  O       -7.838     -63.369     136.295
  H       -6.986     -63.373     136.770
  H       -9.634     -66.744     135.380
  H       -8.026     -66.009     135.223
  H       -9.490     -65.047     134.868
  H      -13.107     -56.701     140.049
  H      -12.259     -56.785     138.524
  H      -11.482     -56.073     139.917

 3  4  5  6  7  8  9  10  11  12  13  23  28  29  30  31  32 0
 6-311+G(2d,p)
 ****
 33  34 0
 6-311+G(2d,p)
 ****
 1  2  14  15  16  17  18  19  20  21  22  24  25  26  27 0
 3-21G
 ****
 35  36  37  38  39  40  41  42  43  44  45 0
 3-21G
 ****


