%nproc=1
%NoSave
%Mem=1900MB
#P OB98/GEN NMR

erre ene a

0 1
  C      294.740     163.928     -12.215
  O      295.942     163.252     -11.910
  H      294.983     164.937     -12.553
  H      294.119     163.999     -11.319
  H      294.190     163.417     -13.009
  P      295.901     161.669     -11.669
  C      294.722     160.278     -13.493
  O      295.896     160.988     -13.123
  C      294.817     159.787     -14.941
  O      295.059     160.931     -15.810
  C      295.949     158.779     -15.186
  O      295.524     157.903     -16.237
  C      297.066     159.681     -15.671
  O      298.075     158.948     -16.330
  C      296.278     160.673     -16.530
  N      297.030     161.897     -16.800
  C      297.453     162.092     -18.109
  O      297.251     161.278     -19.011
  N      298.160     163.236     -18.350
  C      298.532     164.155     -17.411
  O      299.195     165.149     -17.677
  C      298.094     163.875     -16.034
  C      297.372     162.779     -15.795
  O      294.832     161.181     -10.749
  O      297.364     161.314     -11.125
  H      298.417     158.238     -15.745
  H      297.321     160.545     -10.526
  H      298.466     163.398     -19.295
  H      298.381     164.580     -15.265
  H      297.033     162.545     -14.791
  H      296.011     160.222     -17.495
  H      297.539     160.198     -14.829
  H      296.216     158.206     -14.294
  H      293.847     159.368     -15.233
  H      293.870     160.955     -13.386
  H      294.585     159.425     -12.821
  P      295.781     156.320     -16.185
  C      294.373     154.236     -15.626
  O      294.571     155.627     -15.389
  O      297.137     155.935     -15.693
  O      295.563     155.823     -17.692
  H      296.098     155.026     -17.855
  H      293.545     153.889     -15.044
  H      295.255     153.698     -15.347
  H      294.171     154.076     -16.665

 6  7  8  9  10  11  12  13  14  15  16  26  31  32  33  34  35 0
 6-311+G(2d,p)
 ****
 36  37 0
 6-311+G(2d,p)
 ****
 1  2  3  4  5  17  18  19  20  21  22  23  24  25 0
 3-21G
 ****
 27  28  29  30  38  39  40  41  42  43  44  45 0
 3-21G
 ****


