%nproc=1
%NoSave
%Mem=1900MB
#P OB98/GEN NMR

erre ene a

0 1
  C     -553.707     148.205      25.662
  O     -552.815     149.329      25.656
  P     -551.366     149.178      26.341
  C     -550.110     149.820      24.135
  O     -550.316     150.073      25.518
  C     -549.684     151.107      23.423
  O     -550.777     152.052      23.378
  C     -548.541     151.852      24.105
  O     -547.286     151.234      23.859
  C     -548.667     153.238      23.472
  O     -548.028     153.279      22.187
  C     -550.198     153.379      23.325
  N     -550.780     154.260      24.330
  C     -551.901     154.974      23.949
  O     -552.377     154.946      22.817
  N     -552.456     155.776      24.917
  C     -551.960     155.975      26.176
  O     -552.492     156.719      26.993
  C     -550.724     155.252      26.496
  C     -550.190     154.447      25.572
  O     -550.941     147.693      25.912
  O     -551.332     149.332      27.825
  H     -547.069     153.213      22.346
  H     -550.337     147.320      26.577
  H     -553.288     156.287      24.667
  H     -550.283     155.402      27.471
  H     -549.276     153.902      25.788
  H     -550.441     153.771      22.326
  H     -548.208     154.019      24.091
  H     -548.730     151.926      25.180
  H     -549.416     150.850      22.383
  H     -551.040     149.457      23.690
  H     -549.347     149.041      24.023
  P     -546.112     151.533      24.915
  C     -544.714     149.341      24.610
  O     -544.839     150.727      24.368
  O     -546.629     150.684      26.179
  O     -545.923     152.984      25.180
  H     -547.098     149.877      25.911
  H     -545.687     148.845      24.621
  H     -544.209     149.180      25.569
  H     -544.105     148.902      23.815
  H     -554.619     148.471      25.171
  H     -553.916     147.921      26.672
  H     -553.251     147.385      25.148

 3  4  5  6  7  8  9  10  11  12  13  23  28  29  30  31  32 0
 6-311+G(2d,p)
 ****
 33  34 0
 6-311+G(2d,p)
 ****
 1  2  14  15  16  17  18  19  20  21  22  24  25  26 0
 3-21G
 ****
 27  35  36  37  38  39  40  41  42  43  44  45 0
 3-21G
 ****


