%nproc=1
%NoSave
%Mem=1900MB
#P OB98/GEN NMR

erre ene a

0 1
  C      140.390     -86.752    -308.441
  O      141.411     -87.205    -309.312
  P      141.650     -88.773    -309.566
  C      141.252     -88.475    -312.104
  O      142.163     -88.872    -311.079
  C      141.992     -88.350    -313.440
  O      143.037     -87.362    -313.321
  C      142.682     -89.631    -313.900
  O      141.738     -90.549    -314.429
  C      143.693     -89.068    -314.894
  O      143.048     -88.789    -316.158
  C      144.108     -87.743    -314.219
  N      145.381     -87.855    -313.504
  C      146.537     -87.715    -314.280
  O      146.475     -87.498    -315.489
  N      147.759     -87.782    -313.650
  C      147.821     -88.003    -312.363
  N      149.050     -87.986    -311.788
  C      146.623     -88.200    -311.531
  C      145.450     -88.115    -312.152
  O      140.478     -89.646    -309.243
  O      142.964     -89.119    -308.728
  H      143.721     -88.374    -316.727
  H      142.782     -89.384    -307.789
  H      146.723     -88.391    -310.466
  H      144.528     -88.234    -311.604
  H      144.181     -86.944    -314.960
  H      144.528     -89.744    -315.090
  H      143.212     -90.101    -313.064
  H      141.278     -88.003    -314.194
  H      149.825     -87.671    -312.369
  H      140.833     -87.501    -311.841
  H      149.171     -87.856    -310.790
  H      140.445     -89.205    -312.177
  P      142.038     -92.116    -314.226
  C      139.637     -92.593    -313.327
  O      140.604     -92.846    -314.333
  O      142.418     -92.220    -312.675
  O      143.109     -92.661    -315.112
  H      143.392     -92.282    -312.569
  H      138.679     -92.963    -313.674
  H      139.567     -91.521    -313.137
  H      139.921     -93.114    -312.406
  H      140.396     -85.682    -308.410
  H      140.562     -87.139    -307.458
  H      139.440     -87.093    -308.797

 3  4  5  6  7  8  9  10  11  12  13  23  27  28  29  30  32 0
 6-311+G(2d,p)
 ****
 34  35 0
 6-311+G(2d,p)
 ****
 1  2  14  15  16  17  18  19  20  21  22  24  25  26 0
 3-21G
 ****
 31  33  36  37  38  39  40  41  42  43  44  45  46 0
 3-21G
 ****


