%nproc=1
%NoSave
%Mem=1900MB
#P OB98/GEN NMR

erre ene a

0 1
  C     -184.481     190.253      42.279
  O     -183.710     191.143      41.458
  P     -184.515     191.903      40.285
  C     -184.674     194.375      41.074
  O     -184.008     193.425      40.242
  C     -183.745     195.517      41.500
  O     -182.457     194.964      41.881
  C     -183.482     196.569      40.414
  O     -183.392     197.857      41.048
  C     -182.089     196.212      39.915
  O     -181.438     197.326      39.302
  C     -181.441     195.727      41.210
  N     -176.457     195.822      40.317
  C     -177.324     196.863      40.612
  N     -176.778     198.100      40.654
  N     -178.596     196.697      40.845
  C     -178.993     195.400      40.804
  C     -178.234     194.280      40.529
  C     -176.828     194.481      40.225
  O     -176.026     193.610      39.905
  N     -178.990     193.139      40.572
  C     -180.207     193.557      40.867
  N     -180.258     194.928      41.004
  O     -186.001     191.996      40.868
  O     -184.483     191.181      38.978
  H     -181.400     198.040      39.974
  H     -186.633     191.580      40.246
  H     -175.484     196.001      40.115
  H     -181.081     192.929      40.962
  H     -181.172     196.574      41.858
  H     -182.163     195.409      39.172
  H     -175.797     198.287      40.544
  H     -184.229     196.595      39.618
  H     -177.389     198.869      40.917
  H     -184.169     195.985      42.394
  H     -185.058     193.866      41.963
  H     -185.535     194.778      40.525
  P     -184.417     198.977      40.522
  C     -186.251     198.856      42.374
  O     -185.145     199.555      41.834
  O     -185.566     198.125      39.802
  O     -183.803     199.998      39.615
  H     -185.994     198.657      39.105
  H     -186.371     197.865      41.919
  H     -187.158     199.444      42.185
  H     -186.109     198.739      43.450
  H     -183.846     189.809      43.017
  H     -184.909     189.486      41.669
  H     -185.262     190.801      42.763

 3  4  5  6  7  8  9  10  11  12  23  26  30  31  33  0
 6-311+G(2d,p)
 ****
 35  36  37  38 0
 6-311+G(2d,p)
 ****
 1  2  13  14  15  16  17  18  19  20  21  22  24  25  27  28  29 0
 3-21G
 ****
 32  34  39  40  41  42  43  44  45  46  47  48  49 0
 3-21G
 ****


