%nproc=1
%NoSave
%Mem=1900MB
#P OB98/GEN NMR

erre ene a

0 1
  C      700.661      73.609     356.918
  O      700.622      74.291     358.153
  P      702.041      74.685     358.810
  C      702.700      75.966     360.990
  O      701.716      75.709     360.000
  C      702.286      77.187     361.822
  O      702.222      78.365     360.986
  C      700.918      77.057     362.484
  O      701.013      76.307     363.684
  C      700.546      78.518     362.704
  O      701.183      79.041     363.882
  C      701.111      79.186     361.436
  N      697.032      81.738     359.872
  C      697.665      81.744     361.103
  N      697.167      82.583     362.038
  N      698.698      80.989     361.395
  C      699.083      80.195     360.363
  C      698.524      80.091     359.107
  C      697.420      80.962     358.788
  O      696.884      81.073     357.690
  N      699.171      79.154     358.345
  C      700.135      78.712     359.129
  N      700.141      79.325     360.360
  O      702.721      75.593     357.684
  O      702.894      73.524     359.214
  H      700.887      78.533     364.662
  H      703.355      75.074     357.154
  H      696.254      82.356     359.707
  H      700.869      77.971     358.850
  H      701.506      80.185     361.637
  H      699.474      78.657     362.841
  H      696.362      83.175     361.896
  H      700.206      76.596     361.791
  H      697.617      82.594     362.946
  H      703.064      77.353     362.576
  H      703.658      76.171     360.502
  H      702.806      75.078     361.630
  P      699.647      75.989     364.466
  C      699.019      74.603     366.572
  O      699.979      74.869     365.569
  O      698.768      75.210     363.382
  O      698.940      77.200     364.984
  H      697.831      75.455     363.490
  H      699.113      73.555     366.875
  H      698.001      74.782     366.220
  H      699.219      75.242     367.439
  H      699.663      73.406     356.591
  H      701.192      72.687     357.036
  H      701.158      74.216     356.191

 3  4  5  6  7  8  9  10  11  12  23  26  30  31 0
 6-311+G(2d,p)
 ****
 33  35  36  37  38 0
 6-311+G(2d,p)
 ****
 1  2  13  14  15  16  17  18  19  20  21  22  24  25 0
 3-21G
 ****
 27  28  29  32  34  39  40  41  42  43  44  45  46  47  48  49 0
 3-21G
 ****


