%nproc=1
%NoSave
%Mem=1900MB
#P OB98/GEN NMR

erre ene a

0 1
  C       23.707      96.034      33.760
  O       22.646      95.164      34.094
  H       24.452      95.999      34.559
  H       23.346      97.060      33.663
  H       24.182      95.716      32.827
  P       21.382      95.078      33.113
  C       19.710      95.773      34.954
  O       20.105      94.761      34.032
  C       18.893      95.157      36.095
  O       19.811      94.444      36.960
  C       18.164      96.216      36.934
  O       16.768      95.960      37.069
  C       18.995      96.286      38.209
  O       18.287      96.715      39.352
  C       19.587      94.876      38.314
  N       20.824      94.810      39.089
  C       20.739      94.314      40.386
  O       19.712      93.906      40.922
  N       21.919      94.285      41.086
  C       23.135      94.699      40.632
  O       24.157      94.642      41.303
  C       23.156      95.233      39.261
  C       22.017      95.265      38.564
  O       21.540      94.181      31.932
  O       21.135      96.596      32.667
  H       18.865      96.577      40.130
  H       21.480      96.731      31.765
  H       21.871      93.917      42.022
  H       24.103      95.580      38.872
  H       21.999      95.652      37.549
  H       18.871      94.194      38.774
  H       19.810      97.003      38.048
  H       18.192      97.193      36.439
  H       18.197      94.422      35.674
  H       19.109      96.507      34.410
  H       20.599      96.267      35.359
  P       15.623      97.062      36.927
  C       14.661      96.396      39.274
  O       14.419      96.659      37.900
  O       15.265      97.445      35.530
  O       16.268      98.359      37.638
  H       15.916      99.141      37.165
  H       13.740      96.145      39.757
  H       15.080      97.266      39.735
  H       15.346      95.579      39.366

 6  7  8  9  10  11  12  13  14  15  16  26  31  32  33  34  35 0
 6-311+G(2d,p)
 ****
 36  37 0
 6-311+G(2d,p)
 ****
 1  2  3  4  5  17  18  19  20  21  22  23  24  25 0
 3-21G
 ****
 27  28  29  30  38  39  40  41  42  43  44  45 0
 3-21G
 ****


