%nproc=1
%NoSave
%Mem=1900MB
#P OB98/GEN NMR

erre ene a

0 1
  C      337.185     324.625     -73.418
  O      337.756     324.306     -72.160
  P      339.346     324.065     -72.107
  C      339.427     325.447     -69.906
  O      339.800     324.251     -70.586
  C      340.266     325.614     -68.635
  O      339.760     324.754     -67.590
  C      341.733     325.244     -68.797
  O      342.449     326.253     -69.497
  C      342.141     325.069     -67.334
  O      342.364     326.354     -66.727
  C      340.884     324.409     -66.731
  N      340.798     320.353     -63.598
  C      340.700     321.681     -63.364
  N      340.755     322.697     -64.242
  C      340.923     322.239     -65.494
  C      341.064     320.921     -65.889
  C      340.996     319.943     -64.879
  N      341.102     318.594     -65.132
  N      341.250     320.833     -67.254
  C      341.206     322.078     -67.679
  N      340.997     322.959     -66.654
  O      339.933     325.361     -72.838
  O      339.805     322.799     -72.761
  H      343.113     326.774     -67.204
  H      340.744     325.141     -73.342
  H      340.551     321.961     -62.316
  H      341.315     322.387     -68.713
  H      340.660     324.780     -65.726
  H      343.053     324.480     -67.207
  H      341.832     324.289     -69.329
  H      340.173     326.659     -68.310
  H      338.372     325.398     -69.625
  H      341.191     317.976     -64.336
  H      341.388     318.299     -66.057
  H      339.559     326.300     -70.582
  P      343.598     325.773     -70.507
  C      343.187     328.069     -71.590
  O      344.167     327.152     -71.121
  O      342.741     325.180     -71.716
  O      344.617     324.864     -69.915
  H      342.028     325.779     -71.999
  H      343.696     328.979     -71.929
  H      342.494     328.332     -70.787
  H      342.641     327.638     -72.435
  H      336.129     324.758     -73.307
  H      337.374     323.829     -74.108
  H      337.621     325.529     -73.789

 3  4  5  6  7  8  9  10  11  12  22  25  29  30  31  32 0
 6-311+G(2d,p)
 ****
 33  36  37 0
 6-311+G(2d,p)
 ****
 1  2  13  14  15  16  17  18  19  20  21  23  24  26 0
 3-21G
 ****
 27  28  34  35  38  39  40  41  42  43  44  45  46  47  48 0
 3-21G
 ****


