%nproc=1
%NoSave
%Mem=1900MB
#P OB98/GEN NMR

erre ene a

0 1
  C      -51.348     379.569    -706.578
  O      -50.517     379.099    -705.532
  P      -49.261     379.959    -705.001
  C      -47.752     377.866    -705.227
  O      -48.247     378.879    -704.369
  C      -46.730     377.000    -704.478
  O      -45.546     377.802    -704.216
  C      -47.218     376.444    -703.136
  O      -46.640     375.137    -702.970
  C      -46.643     377.425    -702.135
  O      -46.545     376.873    -700.833
  C      -45.298     377.756    -702.791
  N      -44.733     379.017    -702.306
  C      -43.907     378.967    -701.185
  O      -43.692     377.905    -700.616
  N      -43.342     380.133    -700.734
  C      -43.645     381.260    -701.308
  N      -43.004     382.376    -700.863
  C      -44.596     381.371    -702.431
  C      -45.074     380.208    -702.890
  O      -49.612     381.093    -704.101
  O      -48.498     380.385    -706.343
  H      -46.065     376.016    -700.891
  H      -48.857     381.213    -706.745
  H      -44.833     382.335    -702.853
  H      -45.760     380.198    -703.730
  H      -44.582     376.931    -702.628
  H      -47.286     378.315    -702.078
  H      -48.315     376.359    -703.092
  H      -46.421     376.177    -705.148
  H      -42.242     382.240    -700.215
  H      -47.254     378.343    -706.078
  H      -42.940     383.218    -701.443
  H      -48.575     377.252    -705.612
  P      -47.600     373.854    -703.113
  C      -47.301     372.617    -700.856
  O      -46.975     372.675    -702.215
  O      -47.247     373.372    -704.612
  O      -49.063     374.095    -703.001
  H      -47.999     372.873    -704.965
  H      -46.801     371.762    -700.417
  H      -48.371     372.501    -700.714
  H      -46.964     373.530    -700.343
  H      -52.116     378.850    -706.774
  H      -50.762     379.714    -707.461
  H      -51.794     380.498    -706.289

 3  4  5  6  7  8  9  10  11  12  13  23  27  28  29  30  32 0
 6-311+G(2d,p)
 ****
 34  35 0
 6-311+G(2d,p)
 ****
 1  2  14  15  16  17  18  19  20  21  22  24  25  26 0
 3-21G
 ****
 31  33  36  37  38  39  40  41  42  43  44  45  46 0
 3-21G
 ****


