%nproc=1
%NoSave
%Mem=1900MB
#P OB98/GEN NMR

erre ene a

0 1
  C      128.396    -249.127     126.903
  O      127.248    -249.648     126.264
  H      129.145    -248.897     126.142
  H      128.817    -249.859     127.599
  H      128.147    -248.207     127.438
  P      126.037    -250.175     127.181
  C      127.252    -252.448     127.455
  O      126.084    -251.776     127.009
  C      127.243    -253.899     126.966
  O      128.455    -254.582     127.351
  C      126.116    -254.761     127.525
  O      124.847    -254.474     126.952
  C      126.628    -256.144     127.148
  O      126.417    -256.368     125.743
  C      128.140    -255.998     127.465
  N      128.492    -256.495     128.797
  C      128.673    -257.879     128.920
  O      128.536    -258.619     127.946
  N      128.968    -258.401     130.156
  C      129.058    -257.614     131.187
  N      129.305    -258.184     132.399
  C      128.893    -256.146     131.099
  C      128.606    -255.663     129.890
  O      124.702    -249.547     126.944
  O      126.569    -249.999     128.682
  H      126.982    -255.736     125.263
  H      125.849    -250.301     129.290
  H      128.967    -255.536     131.987
  H      128.457    -254.592     129.747
  H      128.744    -256.526     126.720
  H      126.125    -256.951     127.690
  H      126.076    -254.687     128.618
  H      127.227    -253.873     125.863
  H      129.371    -259.193     132.426
  H      127.279    -252.406     128.549
  H      129.116    -257.692     133.265
  H      128.147    -251.958     127.056
  P      123.573    -254.437     127.926
  C      123.254    -257.021     127.756
  O      122.689    -255.731     127.581
  O      122.714    -253.222     127.346
  O      123.876    -254.281     129.388
  H      122.916    -252.388     127.816
  H      122.536    -257.765     127.482
  H      123.531    -257.153     128.781
  H      124.121    -257.118     127.137

 6  7  8  9  10  11  12  13  14  15  16  26  30  31  32  33  35 0
 6-311+G(2d,p)
 ****
 37  38 0
 6-311+G(2d,p)
 ****
 1  2  3  4  5  17  18  19  20  21  22  23  24  25 0
 3-21G
 ****
 27  28  29  34  36  39  40  41  42  43  44  45  46 0
 3-21G
 ****


