%nproc=1
%NoSave
%Mem=1900MB
#P OB98/GEN NMR

erre ene a

0 1
  C       84.962      70.492     -11.320
  O       86.375      70.456     -11.309
  H       84.587      70.624     -10.303
  H       84.637      71.340     -11.930
  H       84.557      69.572     -11.751
  P       87.060      69.183     -10.614
  C       88.307      70.556      -8.792
  O       87.298      69.599      -9.080
  C       88.791      70.403      -7.349
  O       87.665      70.601      -6.455
  C       89.388      69.025      -7.048
  O       90.508      69.187      -6.175
  C       88.265      68.305      -6.320
  O       88.747      67.267      -5.475
  C       87.596      69.459      -5.579
  N       84.567      66.880      -2.378
  C       85.903      67.071      -2.401
  N       86.633      67.780      -3.287
  C       85.833      68.365      -4.198
  C       84.458      68.261      -4.303
  C       83.814      67.466      -3.340
  N       82.456      67.236      -3.332
  N       84.001      68.977      -5.394
  C       85.084      69.502      -5.933
  N       86.215      69.156      -5.248
  O       88.537      69.203     -11.241
  O       86.376      67.877     -10.833
  H       89.269      67.676      -4.754
  H       88.513      68.815     -12.137
  H       86.461      66.585      -1.603
  H       85.105      70.127      -6.817
  H       88.108      69.709      -4.641
  H       87.578      67.860      -7.051
  H       89.702      68.494      -7.948
  H       89.510      71.203      -7.135
  H       87.896      71.561      -8.935
  H       82.087      66.607      -2.637
  H       81.888      67.614      -4.076
  H       89.147      70.413      -9.481
  P       91.959      69.205      -6.859
  C       92.885      67.683      -4.976
  O       92.771      67.908      -6.374
  O       92.702      70.416      -6.121
  O       91.921      69.412      -8.340
  H       93.108      71.010      -6.779
  H       93.448      66.789      -4.803
  H       91.909      67.577      -4.551
  H       93.384      68.513      -4.521

 6  7  8  9  10  11  12  13  14  15  25  28  32  33  34  35 0
 6-311+G(2d,p)
 ****
 36  39  40 0
 6-311+G(2d,p)
 ****
 1  2  3  4  5  16  17  18  19  20  21  22  23  24 0
 3-21G
 ****
 26  27  29  30  31  37  38  41  42  43  44  45  46  47 0
 3-21G
 ****
 48 0
 3-21G
 ****


