%nproc=1
%NoSave
%Mem=1900MB
#P OB98/GEN NMR

erre ene a

0 1
  C       -3.756     117.518     -30.294
  O       -3.429     117.303     -31.656
  P       -3.329     115.821     -32.247
  C       -1.276     114.304     -32.483
  O       -2.031     115.128     -31.601
  C       -0.441     113.283     -31.713
  O       -1.313     112.514     -30.839
  C        0.322     112.278     -32.591
  O        1.553     111.981     -31.919
  C       -0.580     111.053     -32.567
  O        0.099     109.852     -32.905
  C       -1.083     111.120     -31.123
  N       -3.113     106.431     -30.757
  C       -1.853     106.848     -31.022
  N       -1.400     108.116     -31.127
  C       -2.391     109.001     -30.933
  C       -3.730     108.721     -30.691
  C       -4.078     107.366     -30.590
  N       -5.351     106.921     -30.292
  N       -4.459     109.900     -30.605
  C       -3.574     110.859     -30.793
  N       -2.300     110.363     -30.928
  O       -3.412     115.721     -33.737
  O       -4.544     115.039     -31.552
  H       -0.497     109.099     -32.730
  H       -5.257     114.896     -32.199
  H       -1.113     106.062     -31.153
  H       -3.797     111.915     -30.838
  H       -0.335     110.743     -30.417
  H       -1.408     111.190     -33.278
  H        0.521     112.631     -33.612
  H        0.262     113.827     -31.065
  H       -0.609     114.951     -33.066
  H       -5.464     105.930     -30.110
  H       -6.024     107.577     -29.892
  H       -1.951     113.788     -33.180
  P        2.819     111.465     -32.749
  C        3.501     109.295     -33.932
  O        2.452     110.001     -33.289
  O        4.137     111.573     -32.043
  O        2.786     112.366     -34.079
  H        3.653     112.333     -34.516
  H        3.596     109.644     -34.969
  H        3.254     108.225     -33.942
  H        4.454     109.440     -33.412
  H       -3.774     118.569     -30.093
  H       -3.022     117.048     -29.673
  H       -4.719     117.099     -30.088

 3  4  5  6  7  8  9  10  11  12  22  25  29  30  31  32 0
 6-311+G(2d,p)
 ****
 33  36  37 0
 6-311+G(2d,p)
 ****
 1  2  13  14  15  16  17  18  19  20  21  23  24  26 0
 3-21G
 ****
 27  28  34  35  38  39  40  41  42  43  44  45  46  47  48 0
 3-21G
 ****


