%nproc=1
%NoSave
%Mem=1900MB
#P OB98/GEN NMR

erre ene a

0 1
  C       91.420     294.956      33.653
  O       91.604     295.169      35.042
  P       92.646     296.308      35.488
  C       94.540     294.536      35.310
  O       93.931     295.558      36.089
  C       95.838     294.054      35.957
  O       96.381     292.961      35.163
  C       96.935     295.129      36.065
  O       97.651     294.868      37.279
  C       97.790     294.832      34.844
  O       99.085     295.413      34.892
  C       97.749     293.309      34.848
  N      101.721     291.973      31.915
  C      101.654     292.465      33.174
  N      100.559     292.787      33.894
  C       99.438     292.546      33.188
  C       99.350     292.067      31.890
  C      100.562     291.771      31.244
  N      100.628     291.277      29.956
  N       98.032     291.978      31.490
  C       97.339     292.401      32.527
  N       98.141     292.733      33.582
  O       91.954     296.943      36.780
  O       92.939     297.341      34.443
  H       99.650     295.018      34.202
  H       92.078     297.911      36.811
  H      102.612     292.616      33.668
  H       96.260     292.492      32.561
  H       98.392     292.878      35.628
  H       97.294     295.234      33.955
  H       96.543     296.151      36.095
  H       95.603     293.653      36.948
  H       94.776     294.932      34.316
  H      101.535     291.290      29.516
  H       99.778     291.330      29.400
  H       93.832     293.710      35.179
  P       97.752     296.025      38.383
  C      100.013     296.732      37.389
  O       99.329     296.272      38.544
  O       97.417     295.202      39.716
  O       96.889     297.219      38.159
  H       97.963     294.397      39.787
  H      101.049     296.949      37.665
  H       99.547     297.644      37.008
  H      100.007     295.956      36.621
  H       90.704     294.175      33.504
  H       92.352     294.675      33.209
  H       91.065     295.857      33.198

 3  4  5  6  7  8  9  10  11  12  22  25  29  30  31  32 0
 6-311+G(2d,p)
 ****
 33  36  37 0
 6-311+G(2d,p)
 ****
 1  2  13  14  15  16  17  18  19  20  21  23  24  26 0
 3-21G
 ****
 27  28  34  35  38  39  40  41  42  43  44  45  46  47  48 0
 3-21G
 ****


