%nproc=1
%NoSave
%Mem=1900MB
#P OB98/GEN NMR

erre ene a

0 1
  C       -1.681     -24.543      -6.455
  O       -2.986     -25.059      -6.650
  P       -3.179     -26.288      -7.663
  C       -4.279     -24.769      -9.502
  O       -3.241     -25.659      -9.137
  C       -4.214     -24.464     -11.002
  O       -2.991     -23.727     -11.281
  C       -4.218     -25.705     -11.904
  O       -4.945     -25.364     -13.092
  C       -2.744     -25.899     -12.218
  O       -2.530     -26.658     -13.397
  C       -2.279     -24.441     -12.312
  N       -0.834     -24.280     -12.144
  C       -0.003     -24.787     -13.138
  O       -0.411     -25.377     -14.137
  N        1.342     -24.613     -12.933
  C        1.925     -24.060     -11.831
  O        3.137     -23.948     -11.692
  C        0.999     -23.588     -10.791
  C       -0.314     -23.708     -10.997
  O       -4.691     -26.708      -7.354
  O       -2.174     -27.375      -7.487
  H       -5.263     -25.948      -7.150
  H       -3.143     -27.415     -13.385
  H        1.963     -24.939     -13.660
  H        1.424     -23.156      -9.893
  H       -1.017     -23.368     -10.245
  H       -2.587     -24.011     -13.272
  H       -2.261     -26.421     -11.384
  H       -4.678     -26.572     -11.422
  H       -5.054     -23.804     -11.255
  H       -4.170     -23.835      -8.944
  H       -5.245     -25.210      -9.235
  P       -6.005     -26.432     -13.667
  C       -4.238     -27.308     -15.388
  O       -5.170     -27.602     -14.373
  O       -6.589     -25.607     -14.915
  O       -7.065     -26.848     -12.701
  H       -5.893     -25.216     -15.467
  H       -3.554     -28.156     -15.496
  H       -3.652     -26.418     -15.148
  H       -4.762     -27.157     -16.336
  H       -1.718     -23.733      -5.757
  H       -1.293     -24.191      -7.388
  H       -1.046     -25.315      -6.073

 3  4  5  6  7  8  9  10  11  12  13  24  28  29  30  31  32 0
 6-311+G(2d,p)
 ****
 33  34 0
 6-311+G(2d,p)
 ****
 1  2  14  15  16  17  18  19  20  21  22  23  25  26  27 0
 3-21G
 ****
 35  36  37  38  39  40  41  42  43  44  45 0
 3-21G
 ****


