%nproc=1
%NoSave
%Mem=1900MB
#P OB98/GEN NMR

erre ene a

0 1
  C     -204.032     219.463     864.860
  O     -204.999     220.144     864.064
  P     -204.939     221.692     863.674
  C     -204.222     221.392     861.165
  O     -205.210     221.824     862.106
  C     -204.685     221.555     859.707
  O     -205.722     220.588     859.416
  C     -205.298     222.934     859.482
  O     -204.465     224.052     859.232
  C     -206.388     222.719     858.428
  O     -205.909     222.971     857.104
  C     -206.742     221.240     858.603
  N     -211.801     221.601     858.004
  C     -210.803     222.018     857.158
  N     -211.184     222.651     856.028
  N     -209.529     221.838     857.412
  C     -209.290     221.270     858.614
  C     -210.188     220.845     859.553
  C     -211.597     220.987     859.243
  O     -212.542     220.635     859.970
  N     -209.574     220.326     860.661
  C     -208.287     220.477     860.414
  N     -208.050     221.036     859.178
  O     -203.769     222.455     864.237
  O     -206.284     222.290     864.350
  H     -205.725     223.912     857.019
  H     -206.068     223.214     864.612
  H     -212.782     221.746     857.760
  H     -207.485     220.182     861.090
  H     -206.730     220.714     857.621
  H     -207.229     223.389     858.599
  H     -212.136     222.921     855.846
  H     -205.830     223.199     860.416
  H     -210.437     223.146     855.513
  H     -203.851     221.323     859.007
  H     -204.023     220.343     861.389
  H     -203.281     221.932     861.318
  P     -204.295     225.352     860.166
  C     -201.747     225.410     859.869
  O     -202.954     226.122     859.706
  O     -203.876     224.744     861.590
  O     -205.526     226.214     860.284
  H     -204.006     225.412     862.297
  H     -200.910     226.111     859.823
  H     -201.627     224.680     859.063
  H     -201.723     224.895     860.852
  H     -204.316     218.437     864.965
  H     -203.980     219.920     865.826
  H     -203.075     219.522     864.386

 3  4  5  6  7  8  9  10  11  12  23  26  30  31 0
 6-311+G(2d,p)
 ****
 33  35  36  37  38 0
 6-311+G(2d,p)
 ****
 1  2  13  14  15  16  17  18  19  20  21  22  24  25 0
 3-21G
 ****
 27  28  29  32  34  39  40  41  42  43  44  45  46  47  48  49 0
 3-21G
 ****


