%nproc=1
%NoSave
%Mem=1900MB
#P OB98/GEN NMR

erre ene a

0 1
  C       23.832      35.384    -181.186
  O       23.940      34.017    -181.526
  H       22.789      35.641    -180.982
  H       24.421      35.570    -180.284
  H       24.219      36.008    -181.995
  P       23.151      33.531    -182.836
  C       20.627      33.394    -183.438
  O       21.606      33.453    -182.409
  C       19.348      32.768    -182.893
  O       18.859      33.532    -181.768
  C       18.197      32.722    -183.891
  O       18.307      31.629    -184.787
  C       17.019      32.546    -182.950
  O       16.955      31.179    -182.502
  C       17.407      33.470    -181.788
  N       13.203      36.363    -181.420
  C       13.404      35.039    -181.250
  N       14.554      34.345    -181.371
  C       15.568      35.159    -181.704
  C       15.513      36.526    -181.918
  C       14.259      37.138    -181.756
  N       14.047      38.487    -181.943
  N       16.755      37.013    -182.280
  C       17.548      35.961    -182.251
  N       16.876      34.816    -181.918
  O       23.567      31.992    -182.978
  O       23.416      34.312    -184.079
  H       16.255      31.140    -181.824
  H       23.416      31.687    -183.892
  H       12.524      34.461    -180.984
  H       18.609      35.978    -182.461
  H       17.080      33.083    -180.816
  H       16.060      32.776    -183.416
  H       18.090      33.673    -184.428
  H       19.591      31.760    -182.532
  H       21.007      32.782    -184.261
  H       13.086      38.790    -181.984
  H       14.794      39.039    -182.337
  H       20.430      34.406    -183.805
  P       17.488      31.720    -186.164
  C       15.013      32.219    -186.790
  O       15.981      32.079    -185.754
  O       17.395      30.195    -186.633
  O       18.106      32.598    -187.202
  H       17.303      30.135    -187.603
  H       14.063      32.457    -186.360
  H       14.938      31.301    -187.335
  H       15.311      33.004    -187.453

 6  7  8  9  10  11  12  13  14  15  25  28  32  33  34  35 0
 6-311+G(2d,p)
 ****
 36  39  40 0
 6-311+G(2d,p)
 ****
 1  2  3  4  5  16  17  18  19  20  21  22  23  24 0
 3-21G
 ****
 26  27  29  30  31  37  38  41  42  43  44  45  46  47 0
 3-21G
 ****
 48 0
 3-21G
 ****


