%nproc=1
%NoSave
%Mem=1900MB
#P OB98/GEN NMR

erre ene a

0 1
  C      -63.095    -164.918    -534.110
  O      -61.893    -164.416    -533.522
  P      -60.672    -165.455    -533.396
  C      -60.034    -167.327    -531.716
  O      -61.085    -166.564    -532.305
  C      -60.219    -167.440    -530.193
  O      -60.169    -166.128    -529.562
  C      -61.538    -168.095    -529.773
  O      -61.280    -168.848    -528.579
  C      -62.410    -166.895    -529.423
  O      -63.523    -167.274    -528.614
  C      -61.369    -166.009    -528.748
  N      -63.224    -162.522    -525.599
  C      -63.029    -163.870    -525.408
  N      -63.312    -164.359    -524.180
  N      -62.571    -164.677    -526.339
  C      -62.284    -164.042    -527.503
  C      -62.430    -162.702    -527.812
  C      -62.963    -161.832    -526.785
  O      -63.154    -160.630    -526.898
  N      -62.012    -162.437    -529.091
  C      -61.677    -163.618    -529.578
  N      -61.780    -164.624    -528.633
  O      -59.537    -164.599    -532.654
  O      -60.209    -165.989    -534.710
  H      -63.171    -167.691    -527.802
  H      -58.883    -164.282    -533.309
  H      -63.582    -161.951    -524.855
  H      -61.344    -163.817    -530.575
  H      -61.128    -166.342    -527.734
  H      -62.797    -166.435    -530.338
  H      -63.611    -163.784    -523.410
  H      -61.989    -168.738    -530.540
  H      -63.137    -165.341    -523.994
  H      -59.375    -168.023    -529.792
  H      -59.078    -166.847    -531.926
  H      -60.003    -168.315    -532.188
  P      -60.679    -170.327    -528.741
  C      -61.611    -172.736    -528.710
  O      -61.897    -171.349    -528.726
  O      -59.956    -170.582    -527.326
  O      -59.699    -170.485    -529.870
  H      -59.119    -171.061    -527.470
  H      -62.453    -173.270    -528.240
  H      -60.700    -172.956    -528.154
  H      -61.512    -173.098    -529.735
  H      -63.829    -164.140    -534.139
  H      -63.464    -165.735    -533.526
  H      -62.892    -165.254    -535.105

 3  4  5  6  7  8  9  10  11  12  23  26  30  31 0
 6-311+G(2d,p)
 ****
 33  35  36  37  38 0
 6-311+G(2d,p)
 ****
 1  2  13  14  15  16  17  18  19  20  21  22  24  25 0
 3-21G
 ****
 27  28  29  32  34  39  40  41  42  43  44  45  46  47  48  49 0
 3-21G
 ****


