%nproc=1
%NoSave
%Mem=1900MB
#P OB98/GEN NMR

erre ene a

0 1
  C     -593.980    -363.357    -381.557
  O     -594.788    -364.150    -382.406
  H     -594.368    -363.418    -380.538
  H     -594.003    -362.305    -381.864
  H     -592.950    -363.722    -381.563
  P     -594.518    -364.092    -383.983
  C     -594.063    -366.640    -383.958
  O     -593.575    -365.350    -384.297
  C     -594.341    -367.446    -385.224
  O     -593.174    -367.477    -386.066
  C     -594.694    -368.905    -384.936
  O     -596.017    -369.028    -384.463
  C     -594.426    -369.523    -386.298
  O     -595.517    -369.305    -387.199
  C     -593.167    -368.750    -386.755
  N     -591.921    -369.484    -386.491
  C     -591.356    -370.123    -387.584
  O     -591.884    -370.056    -388.697
  N     -590.194    -370.844    -387.398
  C     -589.656    -370.914    -386.218
  N     -588.516    -371.635    -386.089
  C     -590.233    -370.234    -385.038
  C     -591.351    -369.545    -385.239
  O     -594.026    -362.790    -384.537
  O     -595.922    -364.530    -384.621
  H     -595.231    -369.648    -388.060
  H     -596.489    -363.750    -384.770
  H     -589.747    -370.303    -384.066
  H     -591.839    -369.022    -384.422
  H     -593.214    -368.531    -387.825
  H     -594.270    -370.607    -386.223
  H     -593.979    -369.336    -384.225
  H     -595.147    -366.949    -385.782
  H     -588.172    -372.102    -386.925
  H     -594.984    -366.501    -383.383
  H     -587.968    -371.679    -385.246
  H     -593.344    -367.178    -383.327
  P     -596.315    -369.669    -383.031
  C     -597.438    -367.428    -382.408
  O     -596.488    -368.413    -382.031
  O     -595.339    -370.704    -382.585
  O     -597.813    -370.207    -383.169
  H     -597.844    -371.039    -383.722
  H     -597.460    -366.653    -381.670
  H     -598.406    -367.877    -382.483
  H     -597.164    -367.012    -383.355

 6  7  8  9  10  11  12  13  14  15  16  26  30  31  32  33  35 0
 6-311+G(2d,p)
 ****
 37  38 0
 6-311+G(2d,p)
 ****
 1  2  3  4  5  17  18  19  20  21  22  23  24  25 0
 3-21G
 ****
 27  28  29  34  36  39  40  41  42  43  44  45  46 0
 3-21G
 ****


