%nproc=1
%NoSave
%Mem=1900MB
#P OB98/GEN NMR

erre ene a

0 1
  C     -563.574     417.469     231.775
  O     -563.602     418.169     233.004
  H     -564.385     416.738     231.769
  H     -562.627     416.931     231.678
  H     -563.707     418.155     230.934
  P     -562.594     419.403     233.170
  C     -564.625     420.980     233.533
  O     -563.374     420.526     234.024
  C     -565.595     421.213     234.693
  O     -566.174     419.940     235.083
  C     -564.945     421.835     235.929
  O     -565.856     422.769     236.521
  C     -564.756     420.654     236.872
  O     -564.696     421.045     238.243
  C     -565.957     419.768     236.501
  N     -565.716     418.369     236.845
  C     -566.496     417.845     237.892
  O     -567.327     418.555     238.471
  N     -566.279     416.545     238.286
  C     -565.316     415.865     237.755
  N     -565.135     414.593     238.215
  C     -564.429     416.400     236.703
  C     -564.691     417.649     236.293
  O     -562.531     420.038     231.706
  O     -561.242     419.056     233.704
  H     -565.595     421.361     238.510
  H     -561.656     420.437     231.530
  H     -563.625     415.803     236.308
  H     -564.087     418.124     235.540
  H     -566.862     420.114     237.025
  H     -563.821     420.135     236.630
  H     -563.995     422.337     235.712
  H     -566.428     421.845     234.337
  H     -565.751     414.268     238.949
  H     -565.044     420.223     232.870
  H     -564.393     413.987     237.914
  H     -564.477     421.906     232.971
  P     -565.325     423.597     237.784
  C     -565.148     425.983     236.743
  O     -565.843     425.112     237.639
  O     -563.751     423.709     237.513
  O     -565.618     422.950     239.094
  H     -563.267     423.141     238.145
  H     -565.608     426.949     236.756
  H     -565.189     425.582     235.752
  H     -564.127     426.070     237.050

 6  7  8  9  10  11  12  13  14  15  16  26  30  31  32  33  35 0
 6-311+G(2d,p)
 ****
 37  38 0
 6-311+G(2d,p)
 ****
 1  2  3  4  5  17  18  19  20  21  22  23  24  25 0
 3-21G
 ****
 27  28  29  34  36  39  40  41  42  43  44  45  46 0
 3-21G
 ****


