%nproc=1
%NoSave
%Mem=1900MB
#P OB98/GEN NMR

erre ene a

0 1
  C      698.551    -106.314    -714.254
  O      699.243    -107.562    -714.253
  P      700.012    -107.979    -712.918
  C      699.994    -110.370    -713.923
  O      700.754    -109.369    -713.239
  C      700.913    -111.262    -714.744
  O      702.024    -111.677    -713.934
  C      700.262    -112.556    -715.250
  O      699.491    -112.329    -716.419
  C      701.495    -113.396    -715.559
  O      702.012    -113.046    -716.853
  C      702.479    -112.976    -714.439
  N      703.510    -117.728    -713.047
  C      703.578    -117.149    -714.295
  N      704.009    -117.921    -715.314
  N      703.253    -115.904    -714.522
  C      702.879    -115.233    -713.415
  C      702.750    -115.702    -712.116
  C      703.068    -117.094    -711.882
  O      702.975    -117.693    -710.820
  N      702.350    -114.729    -711.247
  C      702.262    -113.646    -711.996
  N      702.541    -113.908    -713.333
  O      698.821    -108.412    -711.910
  O      700.870    -106.908    -712.314
  H      701.274    -113.096    -717.478
  H      699.112    -108.295    -710.989
  H      703.791    -118.695    -712.925
  H      702.007    -112.656    -711.637
  H      703.490    -112.827    -714.840
  H      701.275    -114.478    -715.584
  H      704.401    -118.850    -715.171
  H      699.684    -113.034    -714.462
  H      704.108    -117.494    -716.226
  H      701.303    -110.670    -715.585
  H      699.270    -109.887    -714.598
  H      699.432    -110.955    -713.179
  P      697.974    -112.874    -716.380
  C      697.037    -110.671    -717.406
  O      697.217    -112.070    -717.549
  O      697.394    -112.258    -715.022
  O      697.842    -114.367    -716.410
  H      696.653    -112.803    -714.690
  H      697.901    -110.211    -716.921
  H      696.142    -110.471    -716.820
  H      696.919    -110.228    -718.400
  H      698.085    -106.165    -715.206
  H      699.245    -105.521    -714.069
  H      697.804    -106.320    -713.488

 3  4  5  6  7  8  9  10  11  12  23  26  30  31  33  0
 6-311+G(2d,p)
 ****
 35  36  37  38 0
 6-311+G(2d,p)
 ****
 1  2  13  14  15  16  17  18  19  20  21  22  24  25  27  28  29 0
 3-21G
 ****
 32  34  39  40  41  42  43  44  45  46  47  48  49 0
 3-21G
 ****


