%nproc=1
%NoSave
%Mem=1900MB
#P OB98/GEN NMR

erre ene a

0 1
  C      -80.180     246.748     462.011
  O      -79.498     245.575     462.463
  P      -79.611     244.247     461.562
  C      -79.449     242.955     463.818
  O      -79.101     243.003     462.443
  C      -78.660     241.853     464.526
  O      -79.056     240.538     464.072
  C      -77.156     241.937     464.304
  O      -76.544     242.861     465.190
  C      -76.725     240.520     464.664
  O      -76.645     240.384     466.091
  C      -77.884     239.683     464.105
  N      -74.904     236.646     461.363
  C      -74.892     236.918     462.719
  N      -73.952     236.294     463.455
  N      -75.717     237.742     463.298
  C      -76.623     238.289     462.447
  C      -76.738     238.093     461.089
  C      -75.791     237.195     460.455
  O      -75.754     236.920     459.258
  N      -77.768     238.827     460.560
  C      -78.291     239.449     461.598
  N      -77.624     239.168     462.773
  O      -78.428     244.435     460.497
  O      -80.933     244.069     460.894
  H      -76.596     239.425     466.278
  H      -78.651     243.968     459.672
  H      -74.235     236.012     460.966
  H      -79.152     240.105     461.564
  H      -78.120     238.818     464.739
  H      -75.738     240.273     464.263
  H      -73.310     235.606     463.083
  H      -76.921     242.145     463.252
  H      -73.942     236.457     464.454
  H      -78.863     241.926     465.611
  H      -80.525     242.776     463.937
  H      -79.264     243.938     464.272
  P      -75.835     244.154     464.555
  C      -73.940     243.983     466.322
  O      -74.928     244.785     465.722
  O      -77.051     245.184     464.403
  O      -75.142     243.913     463.250
  H      -76.900     245.767     463.627
  H      -73.328     244.613     466.973
  H      -73.300     243.528     465.566
  H      -74.406     243.205     466.936
  H      -80.016     247.546     462.705
  H      -81.228     246.546     461.941
  H      -79.806     247.030     461.049

 3  4  5  6  7  8  9  10  11  12  23  26  30  31 0
 6-311+G(2d,p)
 ****
 33  35  36  37  38 0
 6-311+G(2d,p)
 ****
 1  2  13  14  15  16  17  18  19  20  21  22  24  25 0
 3-21G
 ****
 27  28  29  32  34  39  40  41  42  43  44  45  46  47  48  49 0
 3-21G
 ****


