%nproc=1
%NoSave
%Mem=1900MB
#P OB98/GEN NMR

erre ene a

0 1
  C     -322.721    -259.008     451.579
  O     -322.509    -257.694     452.098
  P     -321.941    -256.547     451.143
  C     -322.794    -255.009     449.244
  O     -323.086    -256.094     450.116
  C     -323.922    -253.973     449.301
  O     -325.212    -254.575     449.027
  C     -324.078    -253.341     450.680
  O     -323.045    -252.477     451.106
  C     -325.486    -252.771     450.616
  O     -325.509    -251.498     449.977
  C     -326.209    -253.828     449.751
  N     -327.066    -254.713     450.542
  C     -328.367    -254.887     450.079
  O     -328.815    -254.306     449.091
  N     -329.157    -255.727     450.816
  C     -328.791    -256.370     451.963
  O     -329.549    -257.092     452.599
  C     -327.415    -256.130     452.417
  C     -326.625    -255.327     451.699
  O     -320.608    -256.813     450.530
  O     -321.848    -255.277     452.128
  H     -324.924    -250.902     450.489
  H     -321.019    -254.802     451.927
  H     -330.099    -255.866     450.491
  H     -327.090    -256.619     453.327
  H     -325.605    -255.141     452.016
  H     -326.844    -253.337     448.998
  H     -325.911    -252.634     451.617
  H     -324.103    -254.156     451.420
  H     -323.741    -253.220     448.536
  H     -322.670    -255.375     448.224
  H     -321.836    -254.567     449.534
  P     -321.995    -252.857     452.256
  C     -319.495    -253.534     452.356
  O     -320.650    -253.392     451.561
  O     -322.512    -253.623     453.427
  O     -321.541    -251.398     452.761
  H     -321.349    -251.452     453.720
  H     -318.679    -253.890     451.718
  H     -319.660    -254.263     453.155
  H     -319.205    -252.570     452.786
  H     -323.102    -259.640     452.354
  H     -321.794    -259.403     451.219
  H     -323.426    -258.965     450.775

 3  4  5  6  7  8  9  10  11  12  13  23  28  29  30  31  32 0
 6-311+G(2d,p)
 ****
 33  34 0
 6-311+G(2d,p)
 ****
 1  2  14  15  16  17  18  19  20  21  22  24  25  26  27 0
 3-21G
 ****
 35  36  37  38  39  40  41  42  43  44  45 0
 3-21G
 ****


