%nproc=1
%NoSave
%Mem=1900MB
#P OB98/GEN NMR

erre ene a

0 1
  C      189.584     791.752     459.897
  O      189.704     793.140     459.599
  P      190.489     793.732     458.341
  C      190.276     792.797     455.903
  O      189.649     793.398     457.023
  C      189.470     792.954     454.594
  O      188.128     792.409     454.781
  C      189.289     794.439     454.252
  O      190.304     795.129     453.552
  C      187.927     794.503     453.578
  O      188.005     794.429     452.158
  C      187.187     793.289     454.129
  N      182.482     795.209     454.745
  C      183.236     795.090     453.603
  N      182.681     795.585     452.454
  N      184.416     794.546     453.548
  C      184.885     794.168     454.772
  C      184.240     794.251     455.985
  C      182.916     794.807     456.002
  O      182.183     794.931     457.001
  N      185.032     793.791     456.994
  C      186.161     793.453     456.417
  N      186.119     793.650     455.058
  O      191.948     793.433     458.299
  O      190.323     795.328     458.507
  H      188.492     795.205     451.837
  H      191.140     795.736     458.141
  H      181.551     795.617     454.711
  H      187.031     793.035     456.913
  H      186.732     792.703     453.327
  H      187.434     795.464     453.803
  H      181.833     796.126     452.449
  H      189.173     794.972     455.202
  H      183.319     795.693     451.672
  H      189.922     792.383     453.791
  H      190.416     791.745     456.138
  H      191.271     793.233     455.751
  P      191.777     795.452     454.115
  C      193.974     794.161     454.393
  O      192.759     794.274     453.666
  O      191.645     795.234     455.688
  O      192.274     796.842     453.827
  H      192.392     795.651     456.164
  H      194.679     793.545     453.796
  H      193.790     793.686     455.360
  H      194.425     795.150     454.559
  H      189.010     791.628     460.791
  H      190.558     791.332     460.037
  H      189.094     791.254     459.087

 3  4  5  6  7  8  9  10  11  12  23  26  30  31 0
 6-311+G(2d,p)
 ****
 33  35  36  37  38 0
 6-311+G(2d,p)
 ****
 1  2  13  14  15  16  17  18  19  20  21  22  24  25 0
 3-21G
 ****
 27  28  29  32  34  39  40  41  42  43  44  45  46  47  48  49 0
 3-21G
 ****


