%nproc=1
%NoSave
%Mem=1900MB
#P OB98/GEN NMR

erre ene a

0 1
  C     -721.506     -92.852    -281.434
  O     -720.403     -91.960    -281.449
  H     -721.182     -93.792    -280.975
  H     -721.840     -93.050    -282.454
  H     -722.323     -92.435    -280.845
  P     -720.669     -90.517    -282.105
  C     -720.471     -89.600    -284.527
  O     -720.638     -90.741    -283.700
  C     -719.414     -89.862    -285.590
  O     -719.804     -90.965    -286.427
  C     -719.149     -88.684    -286.520
  O     -718.245     -87.756    -285.927
  C     -718.548     -89.384    -287.728
  O     -717.146     -89.680    -287.530
  C     -719.383     -90.680    -287.795
  N     -721.106     -91.463    -292.473
  C     -719.868     -91.728    -291.930
  N     -718.934     -92.232    -292.758
  N     -719.570     -91.508    -290.676
  C     -720.591     -90.979    -289.962
  C     -721.869     -90.686    -290.396
  C     -722.196     -90.949    -291.771
  O     -723.295     -90.808    -292.307
  N     -722.625     -90.169    -289.373
  C     -721.801     -90.114    -288.343
  N     -720.558     -90.575    -288.653
  O     -719.299     -89.726    -281.827
  O     -721.848     -89.782    -281.580
  H     -716.894     -90.400    -288.126
  H     -719.496     -88.781    -281.724
  H     -721.273     -91.670    -293.444
  H     -722.059     -89.748    -287.358
  H     -718.799     -91.530    -288.147
  H     -718.616     -88.763    -288.627
  H     -718.991     -92.103    -293.762
  H     -720.089     -88.183    -286.801
  H     -718.010     -92.398    -292.373
  H     -718.495     -90.146    -285.066
  H     -720.169     -88.751    -283.900
  H     -721.436     -89.356    -284.995
  P     -718.309     -86.224    -286.436
  C     -717.826     -85.020    -288.684
  O     -717.833     -86.243    -287.957
  O     -717.072     -85.542    -285.673
  O     -719.600     -85.525    -286.164
  H     -717.175     -84.573    -285.692
  H     -717.484     -85.200    -289.682
  H     -717.172     -84.323    -288.203
  H     -718.817     -84.617    -288.714

 6  7  8  9  10  11  12  13  14  15  26  29  33  34 0
 6-311+G(2d,p)
 ****
 36  38  39  40  41 0
 6-311+G(2d,p)
 ****
 1  2  3  4  5  16  17  18  19  20  21  22  23  24  25 0
 3-21G
 ****
 27  28  30  31  32  35  37  42  43  44  45  46  47 0
 3-21G
 ****
 48  49 0
 3-21G
 ****


