%nproc=1
%NoSave
%Mem=1900MB
#P OB98/GEN NMR

erre ene a

0 1
  C      -13.622     -24.566     -52.699
  O      -13.579     -25.982     -52.713
  P      -12.391     -26.705     -53.513
  C      -13.853     -26.704     -55.696
  O      -12.627     -26.383     -55.067
  C      -13.712     -26.606     -57.218
  O      -13.362     -25.239     -57.571
  C      -12.639     -27.524     -57.818
  O      -13.117     -27.956     -59.098
  C      -11.450     -26.592     -57.980
  O      -10.517     -27.056     -58.942
  C      -12.160     -25.289     -58.366
  N      -11.346     -24.094     -58.140
  C      -10.693     -23.537     -59.236
  O      -10.744     -24.000     -60.373
  N       -9.940     -22.420     -58.973
  C       -9.727     -21.862     -57.747
  O       -9.028     -20.872     -57.567
  C      -10.403     -22.523     -56.621
  C      -11.175     -23.583     -56.867
  O      -12.808     -28.241     -53.365
  O      -11.032     -26.367     -53.003
  H      -13.770     -28.378     -53.385
  H       -9.882     -26.338     -59.118
  H       -9.488     -21.976     -59.759
  H      -10.246     -22.118     -55.629
  H      -11.683     -24.087     -56.054
  H      -12.471     -25.329     -59.416
  H      -10.930     -26.495     -57.020
  H      -12.429     -28.391     -57.186
  H      -14.690     -26.816     -57.669
  H      -14.626     -26.006     -55.364
  H      -14.160     -27.713     -55.397
  P      -13.057     -29.529     -59.440
  C      -10.529     -29.397     -60.106
  O      -11.529     -29.988     -59.309
  O      -13.280     -29.481     -61.029
  O      -14.075     -30.364     -58.737
  H      -12.711     -28.831     -61.471
  H       -9.554     -29.587     -59.648
  H      -10.670     -28.316     -60.188
  H      -10.542     -29.845     -61.104
  H      -14.467     -24.240     -52.128
  H      -13.707     -24.202     -53.702
  H      -12.725     -24.186     -52.257

 3  4  5  6  7  8  9  10  11  12  13  24  28  29  30  31  32 0
 6-311+G(2d,p)
 ****
 33  34 0
 6-311+G(2d,p)
 ****
 1  2  14  15  16  17  18  19  20  21  22  23  25  26  27 0
 3-21G
 ****
 35  36  37  38  39  40  41  42  43  44  45 0
 3-21G
 ****


