%nproc=1
%NoSave
%Mem=1900MB
#P OB98/GEN NMR

erre ene a

0 1
  C       -1.065    -211.859    -113.043
  O       -2.231    -211.244    -113.552
  H       -0.438    -211.119    -112.538
  H       -1.357    -212.624    -112.319
  H       -0.503    -212.333    -113.852
  P       -2.023    -210.088    -114.646
  C       -0.470    -208.010    -114.791
  O       -1.043    -209.015    -113.965
  C       -0.039    -206.826    -113.932
  O       -1.181    -206.265    -113.246
  C        0.968    -207.174    -112.842
  O        2.292    -207.250    -113.338
  C        0.794    -205.986    -111.912
  O        1.473    -204.840    -112.456
  C       -0.726    -205.776    -111.955
  N       -2.238    -205.576    -107.070
  C       -1.518    -204.721    -107.827
  N       -1.153    -204.850    -109.119
  C       -1.611    -206.003    -109.629
  C       -2.351    -206.976    -108.978
  C       -2.674    -206.725    -107.634
  N       -3.397    -207.602    -106.854
  N       -2.608    -208.041    -109.821
  C       -2.060    -207.697    -110.969
  N       -1.437    -206.479    -110.902
  O       -3.434    -209.330    -114.666
  O       -1.602    -210.547    -116.002
  H        0.995    -204.053    -112.131
  H       -3.535    -208.834    -115.499
  H       -1.189    -203.814    -107.327
  H       -2.087    -208.292    -111.872
  H       -1.006    -204.718    -111.887
  H        1.203    -206.159    -110.915
  H        0.683    -208.092    -112.309
  H        0.362    -206.050    -114.599
  H       -1.214    -207.676    -115.520
  H       -3.414    -207.415    -105.863
  H       -3.594    -208.522    -107.222
  H        0.390    -208.428    -115.323
  P        3.118    -208.593    -113.034
  C        3.540    -209.920    -110.837
  O        3.280    -208.656    -111.441
  O        4.589    -208.238    -113.547
  O        2.570    -209.822    -113.680
  H        5.072    -209.047    -113.804
  H        3.622    -209.799    -109.777
  H        4.456    -210.318    -111.222
  H        2.738    -210.593    -111.058

 6  7  8  9  10  11  12  13  14  15  25  28  32  33  34  35 0
 6-311+G(2d,p)
 ****
 36  39  40 0
 6-311+G(2d,p)
 ****
 1  2  3  4  5  16  17  18  19  20  21  22  23  24 0
 3-21G
 ****
 26  27  29  30  31  37  38  41  42  43  44  45  46  47 0
 3-21G
 ****
 48 0
 3-21G
 ****


