%nproc=1
%NoSave
%Mem=1900MB
#P OB98/GEN NMR

erre ene a

0 1
  C      126.024     401.316    -341.814
  O      127.436     401.348    -341.776
  H      125.684     400.370    -341.380
  H      125.669     401.375    -342.848
  H      125.614     402.142    -341.229
  P      128.151     402.610    -342.461
  C      129.284     402.081    -344.744
  O      128.079     402.382    -344.050
  C      129.387     400.571    -344.947
  O      128.325     400.116    -345.817
  C      130.681     400.123    -345.615
  O      131.779     400.083    -344.719
  C      130.284     398.744    -346.111
  O      130.436     397.748    -345.089
  C      128.804     398.931    -346.491
  N      128.617     399.008    -347.937
  C      128.443     397.788    -348.588
  O      128.432     396.707    -348.012
  N      128.314     397.859    -349.955
  C      128.389     398.992    -350.708
  O      128.326     398.971    -351.935
  C      128.597     400.246    -349.969
  C      128.703     400.199    -348.636
  O      129.699     402.386    -342.114
  O      127.660     403.944    -341.997
  H      129.976     403.020    -341.425
  H      130.557     396.898    -345.553
  H      128.186     396.987    -350.444
  H      128.664     401.164    -350.539
  H      128.867     401.108    -348.065
  H      128.201     398.093    -346.115
  H      130.906     398.439    -346.953
  H      130.899     400.761    -346.483
  H      129.270     400.080    -343.972
  H      130.140     402.423    -344.156
  H      129.282     402.604    -345.705
  P      133.238     400.407    -345.311
  C      135.020     398.524    -345.766
  O      133.731     399.055    -346.019
  O      134.086     400.490    -343.958
  O      133.265     401.636    -346.156
  H      133.691     399.949    -343.252
  H      135.153     397.625    -346.331
  H      135.118     398.307    -344.723
  H      135.763     399.239    -346.053

 6  7  8  9  10  11  12  13  14  15  16  27  31  32  33  34  35 0
 6-311+G(2d,p)
 ****
 36  37 0
 6-311+G(2d,p)
 ****
 1  2  3  4  5  17  18  19  20  21  22  23  24  25 0
 3-21G
 ****
 26  28  29  30  38  39  40  41  42  43  44  45 0
 3-21G
 ****


