%nproc=1
%NoSave
%Mem=1900MB
#P OB98/GEN NMR

erre ene a

0 1
  C      589.784    -425.353       2.169
  O      589.574    -423.963       2.395
  P      589.605    -423.363       3.887
  C      591.540    -421.800       3.175
  O      591.095    -422.814       4.079
  C      591.816    -420.512       3.942
  O      592.858    -420.739       4.914
  C      592.303    -419.359       3.075
  O      591.228    -418.778       2.353
  C      592.945    -418.457       4.124
  O      591.935    -417.700       4.823
  C      593.574    -419.491       5.079
  N      595.006    -419.672       4.857
  C      595.867    -419.082       5.784
  O      595.428    -418.451       6.750
  N      597.227    -419.248       5.623
  C      597.680    -419.926       4.617
  N      599.026    -420.111       4.540
  C      596.809    -420.517       3.584
  C      595.495    -420.361       3.765
  O      589.149    -424.312       4.952
  O      588.745    -422.019       3.797
  H      592.397    -417.198       5.523
  H      587.780    -422.160       3.955
  H      597.244    -421.066       2.750
  H      594.789    -420.785       3.064
  H      593.425    -419.184       6.121
  H      593.660    -417.745       3.708
  H      593.065    -419.705       2.368
  H      590.897    -420.227       4.485
  H      599.565    -419.843       5.360
  H      590.742    -421.622       2.442
  H      599.426    -420.846       3.970
  H      592.434    -422.153       2.657
  P      591.586    -417.661       1.261
  C      591.816    -419.421      -0.620
  O      592.447    -418.411       0.125
  O      592.648    -416.734       2.013
  O      590.408    -416.880       0.755
  H      592.219    -415.915       2.346
  H      592.443    -419.657      -1.494
  H      590.836    -419.089      -0.982
  H      591.700    -420.327      -0.018
  H      589.726    -425.557       1.120
  H      589.033    -425.915       2.683
  H      590.751    -425.632       2.534

 3  4  5  6  7  8  9  10  11  12  13  23  27  28  29  30  32 0
 6-311+G(2d,p)
 ****
 34  35 0
 6-311+G(2d,p)
 ****
 1  2  14  15  16  17  18  19  20  21  22  24  25  26 0
 3-21G
 ****
 31  33  36  37  38  39  40  41  42  43  44  45  46 0
 3-21G
 ****


