%nproc=1
%NoSave
%Mem=1900MB
#P OB98/GEN NMR

erre ene a

0 1
  C      204.046     812.099     151.183
  O      203.707     810.729     151.104
  H      203.639     812.503     152.109
  H      203.607     812.641     150.340
  H      205.132     812.231     151.185
  P      204.327     809.846     149.910
  C      202.066     809.319     148.790
  O      203.200     808.792     149.475
  C      200.946     808.281     148.771
  O      201.404     807.062     148.154
  C      200.464     807.872     150.166
  O      199.653     808.867     150.751
  C      199.757     806.566     149.845
  O      198.429     806.799     149.365
  C      200.649     805.972     148.735
  N      201.537     804.929     149.243
  C      200.987     803.659     149.360
  O      199.815     803.385     149.072
  N      201.802     802.702     149.915
  C      203.033     802.929     150.464
  O      203.622     802.104     151.160
  C      203.590     804.272     150.244
  C      202.828     805.191     149.668
  O      205.677     809.259     150.178
  O      204.364     810.864     148.672
  H      205.276     811.189     148.552
  H      198.071     805.919     149.118
  H      201.388     801.787     150.049
  H      204.598     804.468     150.601
  H      203.205     806.207     149.512
  H      200.032     805.556     147.925
  H      199.676     805.925     150.737
  H      201.334     807.660     150.807
  H      200.112     808.680     148.172
  H      202.357     809.558     147.756
  H      201.744     810.239     149.292
  P      200.258     809.854     151.855
  C      198.236     809.390     153.390
  O      199.047     810.386     152.773
  O      201.165     810.919     151.338
  O      201.047     808.872     152.860
  H      201.943     809.223     153.002
  H      197.471     809.862     153.970
  H      198.842     808.781     154.028
  H      197.786     808.779     152.636

 6  7  8  9  10  11  12  13  14  15  16  27  31  32  33  34  35 0
 6-311+G(2d,p)
 ****
 36  37 0
 6-311+G(2d,p)
 ****
 1  2  3  4  5  17  18  19  20  21  22  23  24  25 0
 3-21G
 ****
 26  28  29  30  38  39  40  41  42  43  44  45 0
 3-21G
 ****


