%nproc=1
%NoSave
%Mem=1900MB
#P OB98/GEN NMR

erre ene a

0 1
  C       31.997     613.204    -171.921
  O       31.927     611.797    -171.786
  H       31.549     613.660    -171.038
  H       31.437     613.538    -172.804
  H       33.043     613.536    -171.992
  P       32.605     610.876    -172.914
  C       34.300     609.453    -171.605
  O       33.008     609.490    -172.193
  C       34.678     608.039    -171.227
  O       33.862     607.608    -170.127
  C       34.482     607.014    -172.377
  O       35.541     606.064    -172.318
  C       33.167     606.334    -172.010
  O       33.079     605.023    -172.555
  C       33.199     606.376    -170.491
  N       29.641     603.294    -168.603
  C       30.915     603.028    -169.005
  N       31.343     601.727    -168.935
  N       31.766     603.950    -169.463
  C       31.227     605.201    -169.470
  C       29.965     605.588    -169.108
  C       29.059     604.563    -168.619
  O       27.885     604.750    -168.254
  N       29.798     606.945    -169.294
  C       30.969     607.354    -169.783
  N       31.853     606.318    -169.923
  O       33.709     611.517    -173.692
  O       31.380     610.451    -173.852
  H       32.336     604.574    -172.091
  H       31.354     610.990    -174.657
  H       29.027     602.557    -168.272
  H       31.189     608.377    -170.028
  H       33.750     605.524    -170.042
  H       32.337     606.935    -172.408
  H       30.757     600.973    -168.596
  H       34.455     607.483    -173.363
  H       32.275     601.514    -169.211
  H       35.723     608.022    -170.867
  H       34.295     610.088    -170.722
  H       35.037     609.865    -172.305
  P       36.290     605.638    -173.654
  C       38.202     607.390    -173.761
  O       37.847     606.011    -173.525
  O       35.655     606.124    -174.930
  O       36.310     604.037    -173.599
  H       36.294     603.682    -174.487
  H       39.259     607.511    -173.646
  H       37.693     608.015    -173.057
  H       37.917     607.667    -174.755

 6  7  8  9  10  11  12  13  14  15  26  29  33  34 0
 6-311+G(2d,p)
 ****
 36  38  39  40  41 0
 6-311+G(2d,p)
 ****
 1  2  3  4  5  16  17  18  19  20  21  22  23  24  25 0
 3-21G
 ****
 27  28  30  31  32  35  37  42  43  44  45  46  47 0
 3-21G
 ****
 48  49 0
 3-21G
 ****


