%nproc=1
%NoSave
%Mem=1900MB
#P OB98/GEN NMR

erre ene a

0 1
  C      -62.495    -102.868    -198.175
  O      -61.935    -103.878    -198.997
  P      -61.944    -103.759    -200.600
  C      -64.357    -104.688    -200.676
  O      -63.488    -103.616    -201.006
  C      -64.990    -105.265    -201.943
  O      -66.023    -104.354    -202.403
  C      -64.008    -105.476    -203.103
  O      -64.427    -106.648    -203.810
  C      -64.217    -104.236    -203.951
  O      -63.801    -104.418    -205.297
  C      -65.722    -104.013    -203.773
  N      -66.126    -102.645    -204.074
  C      -66.229    -102.277    -205.416
  O      -65.963    -103.078    -206.312
  N      -66.633    -101.001    -205.719
  C      -66.835    -100.142    -204.767
  N      -67.292     -98.910    -205.118
  C      -66.631    -100.457    -203.341
  C      -66.305    -101.718    -203.071
  O      -61.210    -104.842    -201.311
  O      -61.389    -102.290    -200.889
  H      -64.147    -105.275    -205.612
  H      -60.399    -102.249    -200.913
  H      -66.784     -99.699    -202.587
  H      -66.160    -102.047    -202.050
  H      -66.286    -104.712    -204.400
  H      -63.642    -103.404    -203.532
  H      -62.977    -105.609    -202.765
  H      -65.482    -106.212    -201.682
  H      -67.582     -98.788    -206.083
  H      -65.150    -104.302    -200.030
  H      -67.770     -98.321    -204.445
  H      -63.804    -105.456    -200.125
  P      -63.327    -107.765    -204.153
  C      -63.581    -107.848    -206.734
  O      -62.778    -107.484    -205.632
  O      -64.246    -109.066    -204.381
  O      -62.310    -108.045    -203.095
  H      -63.715    -109.864    -204.199
  H      -63.054    -107.577    -207.655
  H      -64.534    -107.313    -206.710
  H      -63.760    -108.926    -206.739
  H      -62.385    -103.143    -197.147
  H      -63.534    -102.757    -198.405
  H      -61.989    -101.942    -198.353

 3  4  5  6  7  8  9  10  11  12  13  23  27  28  29  30  32 0
 6-311+G(2d,p)
 ****
 34  35 0
 6-311+G(2d,p)
 ****
 1  2  14  15  16  17  18  19  20  21  22  24  25  26 0
 3-21G
 ****
 31  33  36  37  38  39  40  41  42  43  44  45  46 0
 3-21G
 ****


