%nproc=1
%NoSave
%Mem=1900MB
#P OB98/GEN NMR

erre ene a

0 1
  C     -418.552     288.006    -154.800
  O     -419.285     288.559    -153.720
  H     -419.085     287.128    -155.175
  H     -417.560     287.696    -154.458
  H     -418.458     288.737    -155.606
  P     -418.678     289.877    -153.044
  C     -417.040     290.204    -151.060
  O     -417.522     289.327    -152.075
  C     -415.578     289.902    -150.751
  O     -415.453     288.725    -149.934
  C     -414.711     289.635    -151.979
  O     -414.320     290.853    -152.596
  C     -413.531     288.913    -151.348
  O     -412.640     289.872    -150.752
  C     -414.203     288.065    -150.255
  N     -412.161     283.536    -151.550
  C     -411.608     284.763    -151.415
  N     -412.217     285.927    -151.111
  C     -413.541     285.752    -150.933
  C     -414.239     284.555    -151.045
  C     -413.496     283.407    -151.358
  N     -414.055     282.151    -151.482
  N     -415.585     284.749    -150.803
  C     -415.681     286.034    -150.501
  N     -414.482     286.681    -150.605
  O     -419.670     290.807    -152.428
  O     -417.837     290.489    -154.267
  H     -411.992     289.381    -150.211
  H     -417.407     289.780    -154.773
  H     -410.535     284.813    -151.571
  H     -416.601     286.530    -150.187
  H     -413.599     288.040    -149.331
  H     -412.947     288.351    -152.083
  H     -415.218     288.958    -152.680
  H     -415.172     290.747    -150.173
  H     -417.640     290.097    -150.154
  H     -413.483     281.426    -151.875
  H     -415.056     282.086    -151.458
  H     -417.145     291.227    -151.433
  P     -413.756     290.863    -154.102
  C     -411.465     291.581    -155.021
  O     -412.152     290.877    -153.986
  O     -414.329     291.924    -154.977
  O     -414.067     289.401    -154.654
  H     -414.340     289.439    -155.598
  H     -410.410     291.528    -154.849
  H     -411.776     292.605    -155.023
  H     -411.694     291.137    -155.967

 6  7  8  9  10  11  12  13  14  15  25  28  32  33  34  35 0
 6-311+G(2d,p)
 ****
 36  39  40 0
 6-311+G(2d,p)
 ****
 1  2  3  4  5  16  17  18  19  20  21  22  23  24 0
 3-21G
 ****
 26  27  29  30  31  37  38  41  42  43  44  45  46  47 0
 3-21G
 ****
 48 0
 3-21G
 ****


