%nproc=1
%NoSave
%Mem=1900MB
#P OB98/GEN NMR

erre ene a

0 1
  C      -12.525     -65.201      81.082
  O      -12.357     -66.065      79.975
  H      -11.848     -64.346      80.999
  H      -13.555     -64.836      81.088
  H      -12.335     -65.739      82.015
  P      -10.909     -66.736      79.803
  C      -10.311     -64.743      78.251
  O       -9.921     -65.555      79.348
  C       -9.385     -63.535      78.137
  O       -9.289     -62.860      79.408
  C       -7.950     -63.868      77.739
  O       -7.826     -64.077      76.341
  C       -7.235     -62.598      78.178
  O       -7.438     -61.562      77.198
  C       -7.976     -62.246      79.477
  N       -3.657     -62.010      82.212
  C       -4.056     -61.359      81.099
  N       -5.229     -61.459      80.439
  C       -6.045     -62.331      81.057
  C       -5.789     -63.053      82.210
  C       -4.525     -62.874      82.798
  N       -4.102     -63.599      83.901
  N       -6.864     -63.859      82.531
  C       -7.744     -63.638      81.578
  N       -7.298     -62.719      80.668
  O      -11.083     -67.620      78.477
  O      -10.448     -67.558      80.961
  H       -7.165     -60.724      77.616
  H      -11.274     -68.543      78.730
  H       -3.336     -60.666      80.676
  H       -8.708     -64.122      81.503
  H       -8.129     -61.166      79.585
  H       -6.154     -62.731      78.289
  H       -7.558     -64.715      78.312
  H       -9.835     -62.834      77.423
  H      -11.339     -64.398      78.400
  H       -3.097     -63.736      83.934
  H       -4.681     -64.401      84.120
  H      -10.266     -65.344      77.338
  P       -6.842     -65.245      75.847
  C       -4.931     -63.509      75.688
  O       -5.350     -64.766      76.203
  O       -6.912     -65.117      74.252
  O       -7.206     -66.618      76.295
  H       -7.182     -65.972      73.865
  H       -3.926     -63.314      75.998
  H       -5.574     -62.739      76.059
  H       -4.978     -63.528      74.619

 6  7  8  9  10  11  12  13  14  15  25  28  32  33  34  35 0
 6-311+G(2d,p)
 ****
 36  39  40 0
 6-311+G(2d,p)
 ****
 1  2  3  4  5  16  17  18  19  20  21  22  23  24 0
 3-21G
 ****
 26  27  29  30  31  37  38  41  42  43  44  45  46  47  48 0
 3-21G
 ****


