%nproc=1
%NoSave
%Mem=1900MB
#P OB98/GEN NMR

erre ene a

0 1
  C      -52.223     285.700     -46.216
  O      -51.102     285.830     -47.079
  P      -49.658     285.408     -46.505
  C      -48.703     287.727     -47.219
  O      -48.580     286.316     -47.275
  C      -47.687     288.392     -48.150
  O      -46.375     288.307     -47.533
  C      -47.576     287.758     -49.543
  O      -47.252     288.814     -50.459
  C      -46.388     286.825     -49.398
  O      -45.796     286.490     -50.650
  C      -45.497     287.642     -48.467
  N      -40.651     287.024     -47.147
  C      -41.228     287.958     -47.987
  N      -40.400     288.890     -48.499
  N      -42.498     287.972     -48.296
  C      -43.204     286.985     -47.694
  C      -42.744     285.983     -46.876
  C      -41.346     286.000     -46.512
  O      -40.812     285.241     -45.703
  N      -43.748     285.114     -46.534
  C      -44.830     285.635     -47.079
  N      -44.555     286.798     -47.754
  O      -49.443     283.949     -47.127
  O      -49.522     285.423     -45.014
  H      -46.457     285.985     -51.167
  H      -49.733     283.254     -46.507
  H      -39.669     287.070     -46.929
  H      -45.821     285.228     -47.015
  H      -44.918     288.406     -48.999
  H      -46.708     285.889     -48.922
  H      -39.416     288.957     -48.282
  H      -48.483     287.241     -49.863
  H      -40.801     289.607     -49.092
  H      -47.942     289.453     -48.235
  H      -48.512     288.058     -46.194
  H      -49.724     288.014     -47.487
  P      -48.310     289.151     -51.615
  C      -47.241     288.638     -53.921
  O      -47.480     289.598     -52.910
  O      -48.960     290.527     -51.104
  O      -49.358     288.111     -51.828
  H      -49.894     290.575     -51.397
  H      -47.043     289.154     -54.865
  H      -48.099     287.973     -54.059
  H      -46.360     288.043     -53.653
  H      -53.107     286.015     -46.730
  H      -52.078     286.310     -45.349
  H      -52.328     284.677     -45.920

 3  4  5  6  7  8  9  10  11  12  23  26  30  31 0
 6-311+G(2d,p)
 ****
 33  35  36  37  38 0
 6-311+G(2d,p)
 ****
 1  2  13  14  15  16  17  18  19  20  21  22  24  25 0
 3-21G
 ****
 27  28  29  32  34  39  40  41  42  43  44  45  46  47  48  49 0
 3-21G
 ****


