%nproc=1
%NoSave
%Mem=1900MB
#P OB98/GEN NMR

erre ene a

0 1
  C      448.633     567.320     147.957
  O      447.757     566.803     146.980
  H      448.847     566.543     148.686
  H      448.147     568.161     148.470
  H      449.572     567.656     147.499
  P      447.611     567.621     145.607
  C      445.902     569.298     146.598
  O      447.174     569.119     146.002
  C      445.362     570.705     146.292
  O      446.112     571.667     147.081
  C      445.492     571.110     144.812
  O      444.356     571.904     144.440
  C      446.715     572.034     144.825
  O      446.731     572.930     143.722
  C      446.548     572.711     146.183
  N      448.464     576.987     147.984
  C      447.151     576.591     147.808
  N      446.194     577.498     148.122
  N      446.801     575.402     147.385
  C      447.862     574.592     147.130
  C      449.201     574.864     147.241
  C      449.566     576.187     147.710
  O      450.726     576.607     147.845
  N      449.954     573.796     146.830
  C      449.083     572.894     146.449
  N      447.781     573.330     146.613
  O      446.284     567.000     144.965
  O      448.778     567.523     144.674
  H      447.500     573.535     143.824
  H      446.517     566.282     144.341
  H      448.672     577.922     148.301
  H      449.316     571.922     146.024
  H      445.777     573.495     146.165
  H      447.638     571.425     144.790
  H      446.370     578.412     148.494
  H      445.598     570.276     144.118
  H      445.231     577.201     148.055
  H      444.317     570.758     146.615
  H      445.982     569.181     147.682
  H      445.208     568.544     146.220
  P      443.202     571.205     143.577
  C      444.254     571.574     141.224
  O      443.856     570.647     142.226
  O      442.310     572.437     143.076
  O      442.381     570.215     144.349
  H      441.369     572.172     143.033
  H      444.669     571.044     140.392
  H      444.990     572.239     141.626
  H      443.403     572.136     140.900

 6  7  8  9  10  11  12  13  14  15  26  29  33  34 0
 6-311+G(2d,p)
 ****
 36  38  39  40  41 0
 6-311+G(2d,p)
 ****
 1  2  3  4  5  16  17  18  19  20  21  22  23  24  25 0
 3-21G
 ****
 27  28  30  31  32  35  37  42  43  44  45  46  47 0
 3-21G
 ****
 48  49 0
 3-21G
 ****


