%nproc=1
%NoSave
%Mem=1900MB
#P OB98/GEN NMR

erre ene a

0 1
  C     -549.507    -592.070    -512.575
  O     -550.748    -591.858    -511.938
  H     -549.602    -591.801    -513.630
  H     -549.213    -593.126    -512.510
  H     -548.734    -591.440    -512.123
  P     -550.900    -592.289    -510.397
  C     -553.435    -592.490    -510.874
  O     -552.428    -592.014    -509.993
  C     -554.835    -592.256    -510.280
  O     -555.003    -593.126    -509.125
  C     -555.076    -590.815    -509.805
  O     -556.479    -590.545    -509.949
  C     -554.698    -590.917    -508.337
  O     -555.147    -589.801    -507.608
  C     -555.304    -592.282    -507.985
  N     -554.778    -592.825    -506.749
  C     -555.250    -592.236    -505.562
  O     -556.054    -591.306    -505.614
  N     -554.780    -592.698    -504.366
  C     -553.866    -593.618    -504.341
  N     -553.427    -594.019    -503.116
  C     -553.302    -594.227    -505.563
  C     -553.802    -593.791    -506.722
  O     -549.892    -591.719    -509.456
  O     -550.825    -593.888    -510.442
  H     -554.731    -588.974    -507.943
  H     -549.949    -594.184    -510.115
  H     -552.524    -594.977    -505.490
  H     -553.451    -594.180    -507.672
  H     -556.399    -592.216    -507.910
  H     -553.614    -590.944    -508.219
  H     -554.487    -590.073    -510.350
  H     -555.584    -592.565    -511.024
  H     -553.840    -593.570    -502.307
  H     -553.265    -593.563    -511.020
  H     -552.704    -594.715    -502.975
  H     -553.365    -591.981    -511.844
  P     -557.045    -589.255    -510.702
  C     -558.708    -588.125    -509.087
  O     -558.545    -588.970    -510.224
  O     -556.878    -589.298    -512.192
  O     -556.219    -588.014    -510.086
  H     -556.125    -587.328    -510.772
  H     -559.750    -588.014    -508.871
  H     -558.282    -587.165    -509.292
  H     -558.214    -588.562    -508.244

 6  7  8  9  10  11  12  13  14  15  16  26  30  31  32  33  35 0
 6-311+G(2d,p)
 ****
 37  38 0
 6-311+G(2d,p)
 ****
 1  2  3  4  5  17  18  19  20  21  22  23  24  25 0
 3-21G
 ****
 27  28  29  34  36  39  40  41  42  43  44  45  46 0
 3-21G
 ****


