%nproc=1
%NoSave
%Mem=1900MB
#P OB98/GEN NMR

erre ene a

0 1
  C       77.029     177.255    -175.635
  O       78.434     177.039    -175.474
  P       78.988     176.989    -173.971
  C       81.235     176.050    -174.874
  O       80.590     176.992    -174.028
  C       82.158     176.771    -175.856
  O       81.418     177.377    -176.937
  C       82.946     177.909    -175.222
  O       84.008     177.412    -174.424
  C       83.388     178.677    -176.461
  O       84.522     178.037    -177.072
  C       82.161     178.541    -177.377
  N       80.670     182.702    -179.953
  C       81.561     181.730    -180.246
  N       81.905     180.655    -179.505
  C       81.210     180.630    -178.355
  C       80.267     181.547    -177.923
  C       80.003     182.630    -178.778
  N       79.105     183.628    -178.473
  N       79.770     181.188    -176.687
  C       80.421     180.086    -176.369
  N       81.292     179.703    -177.351
  O       78.626     175.505    -173.494
  O       78.383     178.019    -173.075
  H       85.226     177.985    -176.394
  H       77.900     175.532    -172.845
  H       82.069     181.829    -181.201
  H       80.294     179.535    -175.446
  H       82.441     178.372    -178.423
  H       83.673     179.712    -176.247
  H       82.283     178.534    -174.609
  H       82.850     176.031    -176.280
  H       80.493     175.466    -175.425
  H       79.033     184.409    -179.106
  H       78.668     183.630    -177.564
  H       81.794     175.342    -174.252
  P       83.929     177.650    -172.841
  C       85.015     175.324    -172.769
  O       85.033     176.641    -172.251
  O       82.557     176.923    -172.472
  O       84.055     179.071    -172.412
  H       82.482     176.053    -172.902
  H       85.831     174.758    -172.313
  H       85.158     175.341    -173.852
  H       84.066     174.838    -172.524
  H       76.787     177.267    -176.677
  H       76.760     178.192    -175.195
  H       76.489     176.467    -175.153

 3  4  5  6  7  8  9  10  11  12  22  25  29  30  31  32 0
 6-311+G(2d,p)
 ****
 33  36  37 0
 6-311+G(2d,p)
 ****
 1  2  13  14  15  16  17  18  19  20  21  23  24  26 0
 3-21G
 ****
 27  28  34  35  38  39  40  41  42  43  44  45  46  47  48 0
 3-21G
 ****


