%nproc=1
%NoSave
%Mem=1900MB
#P OB98/GEN NMR

erre ene a

0 1
  C     -337.323    -100.538     760.179
  O     -337.161    -101.820     760.797
  P     -335.821    -102.633     760.422
  C     -336.694    -103.932     758.329
  O     -335.846    -102.889     758.841
  C     -336.667    -103.943     756.806
  O     -335.447    -104.523     756.290
  C     -337.796    -104.764     756.164
  O     -339.037    -104.065     756.146
  C     -337.258    -104.977     754.773
  O     -337.541    -103.818     753.952
  C     -335.734    -105.087     755.013
  N     -335.887    -109.544     752.580
  C     -336.521    -108.343     752.270
  N     -337.301    -108.343     751.176
  N     -336.416    -107.270     753.003
  C     -335.601    -107.427     754.070
  C     -334.908    -108.546     754.469
  C     -335.040    -109.745     753.661
  O     -334.524    -110.836     753.896
  N     -334.160    -108.307     755.593
  C     -334.384    -107.058     755.875
  N     -335.253    -106.465     754.970
  O     -336.105    -104.088     761.034
  O     -334.572    -102.024     760.964
  H     -337.092    -103.963     753.096
  H     -335.256    -104.528     761.257
  H     -335.990    -110.355     751.964
  H     -333.939    -106.507     756.695
  H     -335.167    -104.514     754.260
  H     -337.701    -105.836     754.245
  H     -337.355    -109.108     750.511
  H     -337.890    -105.753     756.674
  H     -337.741    -107.456     750.909
  H     -336.743    -102.912     756.448
  H     -337.724    -103.774     758.686
  H     -336.370    -104.894     758.751
  P     -340.130    -104.456     757.253
  C     -341.378    -105.982     755.524
  O     -340.699    -105.894     756.777
  O     -341.318    -103.455     756.921
  O     -339.666    -104.357     758.655
  H     -341.859    -103.288     757.743
  H     -340.867    -105.416     754.757
  H     -342.420    -105.632     755.662
  H     -341.414    -107.039     755.239
  H     -338.243    -100.099     760.504
  H     -337.339    -100.654     759.115
  H     -336.508     -99.903     760.456

 3  4  5  6  7  8  9  10  11  12  23  26  30  31  33  0
 6-311+G(2d,p)
 ****
 35  36  37  38 0
 6-311+G(2d,p)
 ****
 1  2  13  14  15  16  17  18  19  20  21  22  24  25  27  28  29 0
 3-21G
 ****
 32  34  39  40  41  42  43  44  45  46  47  48  49 0
 3-21G
 ****


