%nproc=1
%NoSave
%Mem=1900MB
#P OB98/GEN NMR

erre ene a

0 1
  C     -273.779     -60.900     355.003
  O     -273.290     -60.080     356.047
  H     -272.959     -61.115     354.314
  H     -274.574     -60.383     354.458
  H     -274.154     -61.843     355.411
  P     -274.352     -59.618     357.157
  C     -272.672     -58.666     358.881
  O     -273.648     -58.376     357.890
  C     -271.811     -57.436     359.160
  O     -270.931     -57.182     358.051
  C     -272.603     -56.152     359.380
  O     -273.053     -56.068     360.722
  C     -271.541     -55.104     359.082
  O     -270.702     -54.926     360.240
  C     -270.733     -55.750     357.943
  N     -269.387     -52.888     353.898
  C     -268.893     -52.955     355.153
  N     -269.333     -53.696     356.192
  C     -270.395     -54.436     355.834
  C     -271.012     -54.469     354.591
  C     -270.459     -53.651     353.591
  N     -270.969     -53.585     352.310
  N     -272.079     -55.344     354.595
  C     -272.069     -55.871     355.802
  N     -271.092     -55.329     356.600
  O     -274.871     -60.698     358.044
  O     -275.454     -58.899     356.242
  H     -271.245     -54.487     360.918
  H     -275.027     -58.375     355.542
  H     -268.029     -52.326     355.349
  H     -272.729     -56.663     356.141
  H     -269.660     -55.558     358.050
  H     -271.968     -54.127     358.847
  H     -273.420     -56.049     358.656
  H     -271.181     -57.656     360.032
  H     -272.035     -59.495     358.554
  H     -270.637     -52.838     351.722
  H     -271.843     -54.057     352.125
  H     -273.201     -58.974     359.790
  P     -274.562     -55.647     361.065
  C     -275.029     -57.638     362.626
  O     -274.829     -56.230     362.536
  O     -275.559     -56.016     360.026
  O     -274.482     -54.069     361.319
  H     -275.374     -53.677     361.271
  H     -275.197     -57.910     363.647
  H     -274.161     -58.146     362.260
  H     -275.879     -57.916     362.039

 6  7  8  9  10  11  12  13  14  15  25  28  32  33  34  35 0
 6-311+G(2d,p)
 ****
 36  39  40 0
 6-311+G(2d,p)
 ****
 1  2  3  4  5  16  17  18  19  20  21  22  23  24 0
 3-21G
 ****
 26  27  29  30  31  37  38  41  42  43  44  45  46  47 0
 3-21G
 ****
 48 0
 3-21G
 ****


