%nproc=1
%NoSave
%Mem=1900MB
#P OB98/GEN NMR

erre ene a

0 1
  C     -894.800    -892.160    -892.090
  O     -894.390    -892.050    -893.470
  P     -893.320    -893.160    -894.060
  C     -894.600    -894.840    -895.640
  O     -894.060    -894.570    -894.330
  C     -896.180    -894.730    -895.650
  O     -896.560    -893.320    -895.380
  C     -896.870    -895.240    -896.960
  O     -897.060    -896.650    -896.940
  C     -898.100    -894.410    -897.030
  O     -899.120    -894.940    -896.070
  C     -897.560    -892.970    -896.380
  N     -897.000    -892.010    -897.350
  C     -897.750    -891.490    -898.430
  O     -898.870    -891.760    -898.590
  N     -897.110    -890.560    -899.220
  C     -895.850    -890.030    -899.050
  O     -895.380    -889.080    -899.740
  C     -895.130    -890.480    -897.800
  C     -895.660    -891.350    -897.080
  O     -892.350    -893.460    -892.760
  O     -892.560    -892.590    -895.150
  H     -900.000    -894.460    -896.300
  H     -891.500    -893.130    -892.950
  H     -897.620    -890.240    -900.000
  H     -894.190    -889.940    -897.640
  H     -895.110    -891.720    -896.180
  H     -898.460    -892.450    -895.910
  H     -898.570    -894.400    -898.020
  H     -896.180    -894.910    -897.760
  H     -896.580    -895.360    -894.720
  H     -894.310    -895.950    -895.810
  H     -894.150    -894.230    -896.370
  P     -895.810    -897.700    -897.030
  C     -896.270    -899.080    -894.880
  O     -895.470    -898.110    -895.510
  O     -894.620    -897.220    -897.850
  O     -896.470    -898.960    -897.650
  H     -896.360    -899.070    -898.580
  H     -895.850    -899.440    -893.920
  H     -896.320    -900.000    -895.610
  H     -897.330    -898.730    -894.750
  H     -895.490    -891.375    -891.859
  H     -893.942    -892.079    -891.456
  H     -895.272    -893.107    -891.933

 3  4  5  6  7  8  9  10  11  12  13  23  28  29  30  31  32 0
 6-311+G(2d,p)
 ****
 33  34 0
 6-311+G(2d,p)
 ****
 1  2  14  15  16  17  18  19  20  21  22  24  25  26  27 0
 3-21G
 ****
 35  36  37  38  39  40  41  42  43  44  45 0
 3-21G
 ****


