%nproc=1
%NoSave
%Mem=1900MB
#P OB98/GEN NMR

erre ene a

0 1
  C     1394.036    -342.940     858.050
  O     1393.872    -343.538     856.773
  H     1393.166    -342.350     858.306
  H     1394.181    -343.725     858.801
  H     1394.929    -342.295     858.040
  P     1393.619    -342.562     855.538
  C     1391.112    -342.096     856.038
  O     1392.067    -342.678     855.145
  C     1389.719    -342.651     855.757
  O     1389.326    -342.220     854.417
  C     1389.640    -344.198     855.776
  O     1388.632    -344.606     856.734
  C     1389.130    -344.589     854.390
  O     1388.167    -345.641     854.407
  C     1388.559    -343.269     853.841
  N     1385.882    -344.197     849.609
  C     1385.488    -343.945     850.861
  N     1386.230    -343.603     851.934
  C     1387.544    -343.503     851.584
  C     1388.077    -343.695     850.309
  C     1387.209    -344.073     849.292
  N     1387.610    -344.390     848.026
  N     1389.466    -343.503     850.347
  C     1389.720    -343.225     851.626
  N     1388.603    -343.238     852.389
  O     1394.375    -343.288     854.318
  O     1394.111    -341.154     855.730
  H     1388.578    -346.377     854.906
  H     1394.923    -342.647     853.851
  H     1384.417    -344.056     851.049
  H     1390.709    -343.063     852.038
  H     1387.496    -343.141     854.160
  H     1390.002    -344.897     853.769
  H     1390.584    -344.689     855.997
  H     1389.011    -342.221     856.453
  H     1391.108    -341.014     855.891
  H     1386.923    -344.771     847.393
  H     1388.591    -344.400     847.831
  H     1391.413    -342.329     857.071
  P     1388.917    -344.174     858.254
  C     1389.920    -346.538     858.689
  O     1389.027    -345.524     859.125
  O     1387.494    -343.578     858.746
  O     1390.032    -343.196     858.433
  H     1387.626    -342.924     859.438
  H     1389.880    -347.365     859.367
  H     1390.916    -346.148     858.661
  H     1389.637    -346.866     857.710

 6  7  8  9  10  11  12  13  14  15  25  28  32  33  34  35 0
 6-311+G(2d,p)
 ****
 36  39  40 0
 6-311+G(2d,p)
 ****
 1  2  3  4  5  16  17  18  19  20  21  22  23  24 0
 3-21G
 ****
 26  27  29  30  31  37  38  41  42  43  44  45  46  47  48 0
 3-21G
 ****


