%nproc=1
%NoSave
%Mem=1900MB
#P OB98/GEN NMR

erre ene a

0 1
  C     -572.281      25.175    -100.534
  O     -571.085      25.565     -99.886
  H     -572.047      24.766    -101.518
  H     -572.767      24.397     -99.936
  H     -572.960      26.024    -100.632
  P     -570.361      26.893    -100.420
  C     -569.476      27.553     -98.069
  O     -569.145      27.188     -99.404
  C     -568.290      28.246     -97.395
  O     -567.180      27.306     -97.332
  C     -567.797      29.507     -98.128
  O     -567.419      30.483     -97.149
  C     -566.542      29.027     -98.848
  O     -565.618      30.077     -99.108
  C     -566.025      27.979     -97.863
  N     -561.298      26.084     -97.806
  C     -562.004      26.781     -96.894
  N     -563.284      27.203     -96.964
  C     -563.855      26.779     -98.106
  C     -563.274      26.058     -99.136
  C     -561.914      25.717     -98.959
  N     -561.171      25.070     -99.922
  N     -564.176      25.860    -100.162
  C     -565.273      26.473     -99.770
  N     -565.131      27.045     -98.534
  O     -571.430      28.032    -100.068
  O     -570.000      26.895    -101.870
  H     -566.064      30.768     -99.631
  H     -572.067      28.122    -100.803
  H     -561.462      27.040     -95.979
  H     -566.185      26.561    -100.352
  H     -565.468      28.424     -97.027
  H     -566.825      28.566     -99.803
  H     -568.531      29.940     -98.820
  H     -568.567      28.487     -96.362
  H     -569.727      26.649     -97.500
  H     -560.185      24.966     -99.757
  H     -561.585      24.889    -100.822
  H     -570.347      28.222     -98.083
  P     -568.297      31.825     -97.077
  C     -569.331      32.105     -94.701
  O     -568.245      32.386     -95.575
  O     -569.802      31.288     -97.218
  O     -567.966      32.827     -98.134
  H     -570.351      31.946     -97.682
  H     -569.143      32.547     -93.745
  H     -569.435      31.046     -94.590
  H     -570.232      32.511     -95.110

 6  7  8  9  10  11  12  13  14  15  25  28  32  33  34  35 0
 6-311+G(2d,p)
 ****
 36  39  40 0
 6-311+G(2d,p)
 ****
 1  2  3  4  5  16  17  18  19  20  21  22  23  24 0
 3-21G
 ****
 26  27  29  30  31  37  38  41  42  43  44  45  46  47 0
 3-21G
 ****
 48 0
 3-21G
 ****


