%nproc=1
%NoSave
%Mem=1900MB
#P OB98/GEN NMR

erre ene a

0 1
  C     -110.499    -320.143    -497.884
  O     -111.323    -319.500    -496.928
  H     -110.928    -321.123    -498.119
  H     -109.494    -320.285    -497.479
  H     -110.450    -319.548    -498.802
  P     -110.801    -318.084    -496.376
  C     -112.531    -316.824    -497.871
  O     -111.164    -317.062    -497.559
  C     -112.886    -315.373    -497.559
  O     -111.993    -314.474    -498.249
  C     -114.292    -314.965    -498.000
  O     -115.301    -315.415    -497.102
  C     -114.154    -313.458    -497.988
  O     -114.191    -312.974    -496.632
  C     -112.742    -313.279    -498.609
  N     -112.775    -313.098    -500.062
  C     -112.615    -311.792    -500.539
  O     -112.476    -310.849    -499.752
  N     -112.661    -311.574    -501.895
  C     -112.827    -312.574    -502.703
  N     -112.880    -312.296    -504.038
  C     -112.984    -313.965    -502.245
  C     -112.945    -314.153    -500.934
  O     -109.207    -318.197    -496.494
  O     -111.291    -317.687    -495.021
  H     -114.184    -312.000    -496.681
  H     -108.792    -317.324    -496.292
  H     -113.137    -314.763    -502.963
  H     -113.059    -315.154    -500.525
  H     -112.228    -312.418    -498.158
  H     -114.956    -312.945    -498.532
  H     -114.502    -315.293    -499.021
  H     -112.745    -315.211    -496.480
  H     -112.833    -311.321    -504.323
  H     -113.147    -317.505    -497.268
  H     -113.187    -312.977    -504.728
  H     -112.717    -317.026    -498.929
  P     -116.779    -315.625    -497.694
  C     -116.626    -318.215    -497.951
  O     -116.732    -316.954    -498.602
  O     -116.914    -314.448    -498.766
  O     -117.881    -315.589    -496.673
  H     -117.813    -314.070    -498.764
  H     -116.607    -318.994    -498.684
  H     -117.467    -318.354    -497.304
  H     -115.725    -318.244    -497.375

 6  7  8  9  10  11  12  13  14  15  16  26  30  31  32  33  35 0
 6-311+G(2d,p)
 ****
 37  38 0
 6-311+G(2d,p)
 ****
 1  2  3  4  5  17  18  19  20  21  22  23  24  25 0
 3-21G
 ****
 27  28  29  34  36  39  40  41  42  43  44  45  46 0
 3-21G
 ****


