%nproc=1
%NoSave
%Mem=1900MB
#P OB98/GEN NMR

erre ene a

0 1
  C       -7.256      -0.576     183.233
  O       -6.538       0.625     183.439
  P       -6.823       1.924     182.551
  C       -8.732       3.618     182.325
  O       -8.377       2.294     182.695
  C      -10.064       3.649     181.576
  O       -9.881       3.097     180.244
  C      -11.189       2.862     182.261
  O      -12.402       3.602     182.072
  C      -11.229       1.567     181.472
  O      -12.479       0.900     181.587
  C      -10.882       2.073     180.069
  N      -10.408       1.012     179.195
  C      -11.357       0.083     178.758
  O      -12.499       0.107     179.210
  N      -10.974      -0.853     177.828
  C       -9.717      -0.969     177.516
  N       -9.392      -1.863     176.543
  C       -8.655      -0.167     178.154
  C       -9.069       0.824     178.943
  O       -6.334       1.847     181.141
  O       -6.095       3.114     183.343
  H       -5.497       3.584     182.729
  H      -12.458       0.090     181.033
  H       -7.615      -0.383     177.954
  H       -8.365       1.485     179.434
  H      -11.755       2.551     179.605
  H      -10.448       0.890     181.840
  H      -11.017       2.720     183.331
  H      -10.362       4.699     181.451
  H      -10.151      -2.363     176.099
  H       -7.949       4.014     181.675
  H       -8.519      -1.797     176.019
  H       -8.776       4.257     183.216
  P      -13.624       3.333     183.081
  C      -13.974       3.723     185.622
  O      -13.061       3.462     184.576
  O      -13.825       1.746     182.932
  O      -14.908       4.034     182.776
  H      -14.743       1.518     183.162
  H      -13.414       3.843     186.552
  H      -14.669       2.887     185.740
  H      -14.532       4.643     185.428
  H       -6.916      -1.318     183.925
  H       -7.095      -0.921     182.233
  H       -8.300      -0.398     183.385

 3  4  5  6  7  8  9  10  11  12  13  24  27  28  29  30  32 0
 6-311+G(2d,p)
 ****
 34  35 0
 6-311+G(2d,p)
 ****
 1  2  14  15  16  17  18  19  20  21  22  23  25  26 0
 3-21G
 ****
 31  33  36  37  38  39  40  41  42  43  44  45  46 0
 3-21G
 ****


