%nproc=1
%NoSave
%Mem=1900MB
#P OB98/GEN NMR

erre ene a

0 1
  C     -311.164     151.289     -76.476
  O     -310.021     151.803     -77.133
  H     -312.003     151.981     -76.586
  H     -311.432     150.335     -76.936
  H     -310.950     151.123     -75.420
  P     -309.483     153.221     -76.608
  C     -307.035     152.964     -77.411
  O     -307.914     153.032     -76.298
  C     -305.585     153.029     -76.937
  O     -305.428     154.210     -76.108
  C     -305.143     151.807     -76.108
  O     -303.908     151.279     -76.609
  C     -304.898     152.369     -74.720
  O     -303.828     151.729     -74.040
  C     -304.603     153.837     -75.001
  N     -302.885     155.215     -70.403
  C     -302.252     154.673     -71.466
  N     -302.742     154.415     -72.696
  C     -304.025     154.819     -72.786
  C     -304.794     155.406     -71.795
  C     -304.175     155.582     -70.546
  N     -304.837     156.085     -69.446
  N     -306.069     155.671     -72.257
  C     -306.086     155.209     -73.495
  N     -304.873     154.671     -73.847
  O     -310.143     153.350     -75.153
  O     -309.837     154.379     -77.476
  H     -303.948     151.891     -73.087
  H     -310.718     154.137     -75.140
  H     -301.209     154.396     -71.306
  H     -306.947     155.195     -74.149
  H     -303.555     153.991     -75.296
  H     -305.809     152.255     -74.122
  H     -305.897     151.013     -76.090
  H     -304.937     153.153     -77.810
  H     -307.228     153.809     -78.081
  H     -304.356     156.069     -68.562
  H     -305.827     156.259     -69.517
  H     -307.221     152.032     -77.955
  P     -303.981     149.814     -77.276
  C     -302.948     150.733     -79.479
  O     -304.009     150.002     -78.878
  O     -305.460     149.328     -76.920
  O     -302.954     148.871     -76.765
  H     -305.426     148.482     -76.442
  H     -303.099     150.776     -80.537
  H     -302.018     150.247     -79.271
  H     -302.929     151.726     -79.081

 6  7  8  9  10  11  12  13  14  15  25  28  32  33  34  35 0
 6-311+G(2d,p)
 ****
 36  39  40 0
 6-311+G(2d,p)
 ****
 1  2  3  4  5  16  17  18  19  20  21  22  23  24 0
 3-21G
 ****
 26  27  29  30  31  37  38  41  42  43  44  45  46  47  48 0
 3-21G
 ****


