%nproc=1
%NoSave
%Mem=1900MB
#P OB98/GEN NMR

erre ene a

0 1
  C      -76.619     462.459     221.624
  O      -76.377     461.249     220.937
  H      -76.563     462.277     222.701
  H      -77.617     462.837     221.380
  H      -75.861     463.203     221.357
  P      -76.389     461.310     219.336
  C      -78.838     460.475     219.067
  O      -77.454     460.213     218.847
  C      -79.651     459.928     217.894
  O      -79.242     460.576     216.669
  C      -79.471     458.441     217.654
  O      -80.213     457.645     218.562
  C      -79.939     458.312     216.214
  O      -81.365     458.203     216.126
  C      -79.470     459.634     215.592
  N      -75.612     462.099     213.305
  C      -76.645     462.542     214.080
  N      -77.618     461.815     214.653
  C      -77.450     460.499     214.398
  C      -76.457     459.909     213.638
  C      -75.508     460.770     213.071
  N      -74.479     460.326     212.264
  N      -76.653     458.536     213.565
  C      -77.736     458.319     214.290
  N      -78.249     459.462     214.810
  O      -74.973     460.672     218.937
  O      -76.566     462.676     218.753
  H      -81.734     458.996     216.563
  H      -74.341     461.385     218.727
  H      -76.676     463.613     214.244
  H      -78.180     457.338     214.449
  H      -80.226     460.072     214.924
  H      -79.511     457.422     215.744
  H      -78.401     458.177     217.702
  H      -80.720     460.165     218.070
  H      -78.996     461.555     219.147
  H      -79.144     460.006     220.008
  H      -73.868     461.006     211.843
  H      -74.452     459.354     211.989
  P      -79.406     456.721     219.596
  C      -79.346     454.637     218.010
  O      -79.764     455.200     219.245
  O      -80.120     456.980     220.997
  O      -77.933     456.991     219.654
  H      -79.460     456.952     221.723
  H      -79.674     453.620     217.953
  H      -78.279     454.672     217.945
  H      -79.771     455.195     217.202

 6  7  8  9  10  11  12  13  14  15  25  28  32  33  34  35 0
 6-311+G(2d,p)
 ****
 36  37  40 0
 6-311+G(2d,p)
 ****
 1  2  3  4  5  16  17  18  19  20  21  22  23  24 0
 3-21G
 ****
 26  27  29  30  31  38  39 41  42  43  44  45  46  47  48 0
 3-21G
 ****


