%nproc=1
%NoSave
%Mem=1900MB
#P OB98/GEN NMR

erre ene a

0 1
  C     -115.492      49.192     130.328
  O     -115.477      50.500     130.863
  H     -115.440      48.477     131.154
  H     -114.627      49.043     129.677
  H     -116.414      49.021     129.768
  P     -115.731      51.706     129.828
  C     -113.234      52.513     129.724
  O     -114.336      51.915     129.062
  C     -112.686      53.686     128.906
  O     -112.108      53.167     127.679
  C     -113.749      54.719     128.519
  O     -113.156      56.019     128.572
  C     -114.090      54.360     127.083
  O     -114.629      55.475     126.370
  C     -112.743      53.831     126.568
  N     -112.898      52.932     125.423
  C     -112.381      53.375     124.200
  O     -111.848      54.483     124.115
  N     -112.520      52.577     123.094
  C     -113.184      51.460     123.185
  N     -113.304      50.723     122.046
  C     -113.788      50.977     124.443
  C     -113.600      51.751     125.512
  O     -115.822      52.965     130.812
  O     -116.924      51.517     128.951
  H     -114.957      55.145     125.502
  H     -115.163      52.949     131.528
  H     -114.343      50.049     124.463
  H     -114.006      51.466     126.481
  H     -112.094      54.664     126.265
  H     -114.839      53.558     127.069
  H     -114.630      54.694     129.159
  H     -111.867      54.148     129.468
  H     -112.891      51.095     121.199
  H     -112.440      51.775     129.881
  H     -113.839      49.867     121.989
  H     -113.576      52.864     130.704
  P     -113.399      56.939     129.860
  C     -115.117      58.645     128.960
  O     -114.893      57.525     129.809
  O     -112.337      57.952     130.143
  O     -113.496      55.866     131.053
  H     -113.044      56.249     131.835
  H     -116.145      58.936     129.017
  H     -114.876      58.382     127.951
  H     -114.498      59.460     129.274

 6  7  8  9  10  11  12  13  14  15  16  26  30  31  32  33  35 0
 6-311+G(2d,p)
 ****
 37  38 0
 6-311+G(2d,p)
 ****
 1  2  3  4  5  17  18  19  20  21  22  23  24  25 0
 3-21G
 ****
 27  28  29  34  36  39  40  41  42  43  44  45  46 0
 3-21G
 ****


