%nproc=1
%NoSave
%Mem=1900MB
#P OB98/GEN NMR

erre ene a

0 1
  C      306.811    -891.720    -895.150
  O      308.109    -892.240    -895.370
  H      306.193    -891.950    -896.020
  H      306.858    -890.630    -895.010
  H      306.363    -892.190    -894.270
  P      309.168    -892.030    -894.190
  C      309.658    -894.570    -893.860
  O      309.133    -893.370    -893.310
  C      308.763    -895.770    -893.520
  O      307.440    -895.530    -894.070
  C      309.257    -897.100    -894.120
  O      308.831    -898.160    -893.240
  C      308.487    -897.170    -895.410
  O      308.540    -898.470    -895.980
  C      307.134    -896.650    -894.930
  N      303.507    -898.130    -898.220
  C      304.124    -898.790    -897.210
  N      305.084    -898.310    -896.370
  C      305.342    -897.020    -896.620
  C      304.780    -896.220    -897.610
  C      303.805    -896.840    -898.440
  N      303.172    -896.180    -899.470
  N      305.329    -894.970    -897.570
  C      306.204    -894.990    -896.590
  N      306.246    -896.220    -896.000
  O      308.470    -890.940    -893.250
  O      310.537    -891.600    -894.620
  H      308.037    -898.480    -896.810
  H      308.790    -890.060    -893.470
  H      303.837    -899.810    -897.080
  H      306.810    -894.170    -896.260
  H      306.605    -897.400    -894.340
  H      308.925    -896.480    -896.170
  H      310.352    -897.150    -894.220
  H      308.649    -895.830    -892.430
  H      310.672    -894.720    -893.450
  H      309.732    -894.470    -894.960
  H      302.506    -896.700    -900.000
  H      303.421    -895.220    -899.650
  P      309.721    -898.530    -891.950
  C      308.102    -897.940    -889.960
  O      309.275    -897.610    -890.730
  O      311.148    -897.920    -892.360
  O      309.840    -900.000    -891.670
  H      311.853    -898.420    -891.910
  H      307.965    -897.211    -889.189
  H      308.225    -898.907    -889.519
  H      307.245    -897.947    -890.601

 6  7  8  9  10  11  12  13  14  15  25  28  32  33  34  35 0
 6-311+G(2d,p)
 ****
 36  37  40 0
 6-311+G(2d,p)
 ****
 1  2  3  4  5  16  17  18  19  20  21  22  23  24 0
 3-21G
 ****
 26  27  29  30  31  38  39 41  42  43  44  45  46  47  48 0
 3-21G
 ****


