%nproc=1
%NoSave
%Mem=1900MB
#P OB98/GEN NMR

erre ene a

0 1
  C       96.350    -373.544    -772.858
  O       97.510    -373.115    -773.543
  H       96.579    -373.696    -771.799
  H       95.581    -372.769    -772.940
  H       95.975    -374.468    -773.298
  P       98.779    -374.096    -773.507
  C      100.389    -372.848    -771.891
  O      100.078    -373.180    -773.238
  C      101.242    -371.574    -771.842
  O      100.384    -370.444    -772.154
  C      101.915    -371.308    -770.491
  O      103.339    -371.221    -770.656
  C      101.393    -369.941    -770.073
  O      102.400    -369.117    -769.475
  C      100.870    -369.344    -771.367
  N       99.756    -364.980    -768.971
  C      100.942    -365.509    -769.366
  N      101.159    -366.624    -770.094
  C       99.993    -367.204    -770.447
  C       98.711    -366.772    -770.133
  C       98.614    -365.615    -769.335
  N       97.411    -365.111    -768.892
  N       97.764    -367.634    -770.657
  C       98.462    -368.585    -771.238
  N       99.812    -368.386    -771.116
  O       98.943    -374.545    -775.038
  O       98.646    -375.273    -772.595
  H      102.649    -369.548    -768.636
  H       99.055    -375.514    -775.082
  H      101.825    -364.967    -769.048
  H       98.048    -369.471    -771.715
  H      101.660    -368.841    -771.941
  H      100.593    -370.080    -769.340
  H      101.684    -372.066    -769.736
  H      101.993    -371.635    -772.643
  H      100.953    -373.667    -771.437
  H       97.445    -364.347    -768.230
  H       96.567    -365.635    -769.068
  H       99.454    -372.712    -771.333
  P      104.217    -372.386    -769.992
  C      106.581    -371.386    -769.526
  O      105.750    -372.142    -770.411
  O      103.815    -373.684    -770.854
  O      103.961    -372.584    -768.539
  H      103.928    -374.494    -770.317
  H      107.565    -371.310    -769.939
  H      106.629    -371.876    -768.576
  H      106.170    -370.406    -769.401

 6  7  8  9  10  11  12  13  14  15  25  28  32  33  34  35 0
 6-311+G(2d,p)
 ****
 36  39  40 0
 6-311+G(2d,p)
 ****
 1  2  3  4  5  16  17  18  19  20  21  22  23  24 0
 3-21G
 ****
 26  27  29  30  31  37  38  41  42  43  44  45  46  47  48 0
 3-21G
 ****


