%nproc=1
%NoSave
%Mem=1900MB
#P OB98/GEN NMR

erre ene a

0 1
  C      -40.295      82.920     348.523
  O      -40.166      83.293     349.894
  P      -39.536      82.368     351.032
  C      -41.580      82.204     352.669
  O      -40.273      82.702     352.411
  C      -42.163      82.700     354.001
  O      -42.569      84.088     353.865
  C      -43.425      81.915     354.361
  O      -43.322      80.660     355.009
  C      -44.310      82.917     355.087
  O      -44.155      82.857     356.509
  C      -43.824      84.267     354.555
  N      -47.821      87.433     354.136
  C      -47.172      86.993     355.274
  N      -47.679      87.404     356.454
  N      -46.130      86.203     355.251
  C      -45.780      85.798     354.012
  C      -46.357      86.150     352.811
  C      -47.474      87.072     352.840
  O      -48.076      87.504     351.863
  N      -45.745      85.523     351.756
  C      -44.819      84.774     352.316
  N      -44.795      84.912     353.687
  O      -38.047      82.303     351.059
  O      -40.082      80.897     350.656
  H      -44.269      81.931     356.784
  H      -39.386      80.263     350.926
  H      -48.603      88.060     354.209
  H      -44.138      84.121     351.782
  H      -43.629      84.969     355.375
  H      -45.369      82.716     354.884
  H      -48.545      87.910     356.541
  H      -43.946      81.697     353.417
  H      -47.345      86.912     357.286
  H      -41.405      82.687     354.788
  H      -41.506      81.112     352.667
  H      -42.248      82.473     351.850
  P      -43.914      79.270     354.481
  C      -45.791      78.966     356.201
  O      -44.541      78.493     355.734
  O      -42.616      78.398     354.143
  O      -44.810      79.376     353.291
  H      -42.851      77.641     353.579
  H      -45.961      78.583     357.211
  H      -46.588      78.607     355.546
  H      -45.808      80.062     356.229
  H      -40.748      83.721     347.977
  H      -40.907      82.045     348.447
  H      -39.327      82.714     348.117

 3  4  5  6  7  8  9  10  11  12  23  26  30  31 0
 6-311+G(2d,p)
 ****
 33  35  36  37  38 0
 6-311+G(2d,p)
 ****
 1  2  13  14  15  16  17  18  19  20  21  22  24  25 0
 3-21G
 ****
 27  28  29  32  34  39  40  41  42  43  44  45  46  47  48  49 0
 3-21G
 ****


