%nproc=1
%NoSave
%Mem=1900MB
#P OB98/GEN NMR

erre ene a

0 1
  C     -225.666     210.644     -12.382
  O     -224.787     211.186     -11.404
  P     -223.597     212.133     -11.918
  C     -222.740     212.096      -9.462
  O     -222.415     211.961     -10.846
  C     -221.679     211.425      -8.595
  O     -221.666     210.006      -8.829
  C     -220.256     211.901      -8.855
  O     -219.960     213.116      -8.190
  C     -219.454     210.756      -8.251
  O     -219.406     210.893      -6.822
  C     -220.303     209.538      -8.634
  N     -216.564     206.710     -10.675
  C     -216.695     207.278      -9.461
  N     -217.719     208.028      -8.993
  C     -218.655     208.199      -9.949
  C     -218.637     207.713     -11.245
  C     -217.535     206.916     -11.602
  N     -217.407     206.314     -12.835
  N     -219.768     208.094     -11.929
  C     -220.468     208.792     -11.055
  N     -219.839     208.875      -9.841
  O     -224.152     213.604     -11.620
  O     -223.218     211.954     -13.348
  H     -219.108     211.804      -6.634
  H     -223.708     214.256     -12.201
  H     -215.880     207.110      -8.766
  H     -221.429     209.253     -11.254
  H     -220.333     208.783      -7.837
  H     -218.421     210.725      -8.607
  H     -220.048     211.961      -9.935
  H     -221.951     211.592      -7.543
  H     -223.707     211.618      -9.278
  H     -216.687     205.622     -12.948
  H     -218.221     206.304     -13.442
  H     -222.820     213.158      -9.216
  P     -220.329     214.479      -8.957
  C     -218.690     215.746      -7.398
  O     -219.085     215.449      -8.724
  O     -221.493     215.103      -8.054
  O     -220.764     214.277     -10.376
  H     -222.069     215.681      -8.588
  H     -217.671     216.148      -7.414
  H     -218.697     214.845      -6.772
  H     -219.359     216.491      -6.965
  H     -226.405     210.037     -11.901
  H     -225.107     210.046     -13.071
  H     -226.147     211.441     -12.910

 3  4  5  6  7  8  9  10  11  12  22  25  29  30  31  32 0
 6-311+G(2d,p)
 ****
 33  36  37 0
 6-311+G(2d,p)
 ****
 1  2  13  14  15  16  17  18  19  20  21  23  24  26 0
 3-21G
 ****
 27  28  34  35  38  39  40  41  42  43  44  45  46  47  48 0
 3-21G
 ****


