%nproc=1
%NoSave
%Mem=1900MB
#P OB98/GEN NMR

erre ene a

0 1
  C       21.391    -106.089     -22.155
  O       21.475    -104.767     -21.661
  H       20.932    -106.062     -23.148
  H       20.763    -106.699     -21.500
  H       22.386    -106.535     -22.242
  P       22.202    -104.512     -20.255
  C       21.452    -103.994     -17.850
  O       21.043    -104.397     -19.149
  C       20.378    -103.130     -17.192
  O       20.400    -101.811     -17.800
  C       18.958    -103.694     -17.340
  O       18.241    -103.437     -16.134
  C       18.368    -102.868     -18.469
  O       16.947    -102.784     -18.393
  C       19.069    -101.524     -18.275
  N       16.879     -97.790     -20.883
  C       16.625     -98.255     -19.608
  N       15.620     -97.656     -18.930
  N       17.296     -99.227     -19.045
  C       18.280     -99.725     -19.831
  C       18.629     -99.352     -21.107
  C       17.870     -98.284     -21.726
  O       18.041     -97.838     -22.853
  N       19.670    -100.114     -21.581
  C       19.944    -100.949     -20.594
  N       19.121    -100.760     -19.513
  O       23.186    -103.385     -20.237
  O       22.896    -105.913     -19.916
  H       16.670    -102.049     -18.982
  H       23.846    -105.889     -20.134
  H       16.325     -97.044     -21.271
  H       20.717    -101.707     -20.611
  H       18.564    -100.892     -17.535
  H       18.637    -103.316     -19.434
  H       15.073     -96.892     -19.294
  H       18.946    -104.764     -17.562
  H       15.430     -97.966     -17.983
  H       20.638    -102.996     -16.135
  H       22.381    -103.417     -17.947
  H       21.649    -104.881     -17.238
  P       18.546    -104.343     -14.846
  C       17.713    -106.565     -13.841
  O       17.683    -105.691     -14.963
  O       18.462    -103.644     -13.529
  O       20.039    -104.865     -15.126
  H       20.491    -105.005     -14.271
  H       17.103    -107.422     -14.040
  H       17.338    -106.053     -12.980
  H       18.720    -106.878     -13.660

 6  7  8  9  10  11  12  13  14  15  26  29  33  34 0
 6-311+G(2d,p)
 ****
 36  38  39  40  41 0
 6-311+G(2d,p)
 ****
 1  2  3  4  5  16  17  18  19  20  21  22  23  24  25 0
 3-21G
 ****
 27  28  30  31  32  35  37  42  43  44  45  46  47 0
 3-21G
 ****
 48  49 0
 3-21G
 ****


