%nproc=1
%NoSave
%Mem=1900MB
#P OB98/GEN NMR

erre ene a

0 1
  C      167.211    -231.211     329.690
  O      168.469    -231.763     330.051
  H      166.566    -231.206     330.574
  H      166.731    -231.816     328.915
  H      167.337    -230.184     329.335
  P      169.539    -232.027     328.886
  C      168.571    -234.409     328.598
  O      168.906    -233.176     327.970
  C      168.967    -235.583     327.702
  O      168.567    -235.330     326.342
  C      170.474    -235.816     327.655
  O      170.926    -236.452     328.837
  C      170.594    -236.634     326.386
  O      170.258    -238.011     326.616
  C      169.545    -235.953     325.476
  N      170.136    -234.980     324.564
  C      170.545    -235.466     323.318
  O      170.398    -236.655     323.039
  N      171.134    -234.596     322.437
  C      171.284    -233.343     322.757
  N      171.876    -232.538     321.833
  C      170.851    -232.785     324.047
  C      170.295    -233.647     324.899
  O      170.951    -232.291     329.316
  O      169.426    -230.721     327.965
  H      169.449    -237.996     327.169
  H      170.043    -230.031     328.271
  H      170.995    -231.738     324.275
  H      169.946    -233.317     325.873
  H      169.010    -236.702     324.878
  H      171.606    -236.605     325.986
  H      170.998    -234.866     327.498
  H      168.440    -236.482     328.050
  H      172.167    -232.965     320.964
  H      167.487    -234.408     328.757
  H      171.961    -231.534     321.936
  H      169.068    -234.497     329.574
  P      172.410    -236.203     329.385
  C      173.007    -238.526     328.416
  O      173.358    -237.139     328.480
  O      172.586    -236.349     330.857
  O      172.755    -234.731     328.840
  H      172.273    -234.035     329.359
  H      173.705    -239.042     327.790
  H      172.022    -238.626     328.011
  H      173.032    -238.946     329.400

 6  7  8  9  10  11  12  13  14  15  16  26  30  31  32  33  35 0
 6-311+G(2d,p)
 ****
 37  38 0
 6-311+G(2d,p)
 ****
 1  2  3  4  5  17  18  19  20  21  22  23  24  25 0
 3-21G
 ****
 27  28  29  34  36  39  40  41  42  43  44  45  46 0
 3-21G
 ****


