%nproc=1
%NoSave
%Mem=1900MB
#P OB98/GEN NMR

erre ene a

0 1
  C     -191.231     -12.229     -91.189
  O     -190.610     -12.057     -89.931
  H     -192.018     -12.980     -91.093
  H     -190.500     -12.575     -91.925
  H     -191.678     -11.288     -91.523
  P     -189.431     -10.972     -89.852
  C     -187.886     -12.467     -91.316
  O     -188.517     -11.203     -91.149
  C     -186.598     -12.297     -92.114
  O     -186.904     -11.788     -93.433
  C     -185.624     -11.294     -91.509
  O     -184.897     -11.836     -90.422
  C     -184.760     -10.962     -92.714
  O     -183.727     -11.937     -92.903
  C     -185.762     -11.016     -93.872
  N     -184.219      -6.665     -96.049
  C     -183.592      -7.843     -95.844
  N     -184.078      -8.961     -95.266
  C     -185.361      -8.789     -94.908
  C     -186.132      -7.649     -95.056
  C     -185.509      -6.545     -95.661
  N     -186.140      -5.336     -95.848
  N     -187.393      -7.843     -94.529
  C     -187.389      -9.082     -94.078
  N     -186.184      -9.693     -94.289
  O     -188.525     -11.510     -88.647
  O     -189.877      -9.567     -89.629
  H     -183.286     -11.709     -93.745
  H     -188.729     -11.006     -87.837
  H     -182.559      -7.891     -96.179
  H     -188.221      -9.572     -93.591
  H     -185.350     -11.519     -94.755
  H     -184.281      -9.990     -92.592
  H     -186.162     -10.388     -91.200
  H     -186.124     -13.280     -92.229
  H     -188.560     -13.140     -91.856
  H     -187.676     -12.891     -90.329
  H     -185.612      -4.567     -96.227
  H     -187.064      -5.201     -95.459
  P     -184.053     -10.822     -89.512
  C     -181.736     -11.352     -90.584
  O     -182.759     -10.392     -90.352
  O     -183.461     -11.752     -88.350
  O     -184.840      -9.681     -88.961
  H     -183.430     -11.255     -87.511
  H     -180.950     -10.905     -91.156
  H     -182.142     -12.182     -91.123
  H     -181.346     -11.692     -89.647

 6  7  8  9  10  11  12  13  14  15  25  28  32  33  34  35 0
 6-311+G(2d,p)
 ****
 36  37  40 0
 6-311+G(2d,p)
 ****
 1  2  3  4  5  16  17  18  19  20  21  22  23  24 0
 3-21G
 ****
 26  27  29  30  31  38  39 41  42  43  44  45  46  47  48 0
 3-21G
 ****


