%nproc=1
%NoSave
%Mem=1900MB
#P OB98/GEN NMR

erre ene a

0 1
  C     -235.494    -119.747      63.037
  O     -234.808    -118.512      62.942
  H     -236.360    -119.717      62.372
  H     -235.846    -119.905      64.060
  H     -234.847    -120.573      62.732
  P     -233.410    -118.347      63.705
  C     -232.997    -116.312      62.175
  O     -232.943    -116.830      63.498
  C     -232.656    -114.822      62.186
  O     -231.335    -114.617      62.729
  C     -232.639    -114.186      60.804
  O     -233.951    -113.955      60.329
  C     -231.831    -112.927      61.079
  O     -232.654    -111.908      61.664
  C     -230.784    -113.442      62.090
  N     -229.492    -113.736      61.471
  C     -228.743    -112.637      61.056
  O     -229.132    -111.474      61.158
  N     -227.531    -112.924      60.487
  C     -227.061    -114.171      60.194
  O     -226.004    -114.373      59.601
  C     -227.903    -115.292      60.633
  C     -229.060    -115.026      61.244
  O     -232.374    -119.376      63.390
  O     -233.818    -118.387      65.255
  H     -233.407    -111.779      61.052
  H     -233.573    -119.251      65.632
  H     -226.979    -112.146      60.164
  H     -227.558    -116.297      60.432
  H     -229.701    -115.837      61.569
  H     -230.625    -112.699      62.882
  H     -231.398    -112.509      60.169
  H     -232.082    -114.819      60.105
  H     -233.375    -114.311      62.843
  H     -234.010    -116.451      61.784
  H     -232.293    -116.868      61.548
  P     -234.403    -114.546      58.913
  C     -236.883    -114.290      59.534
  O     -235.867    -113.976      58.588
  O     -234.248    -116.021      58.754
  O     -233.476    -113.766      57.864
  H     -232.930    -114.409      57.374
  H     -237.811    -113.861      59.217
  H     -236.615    -113.892      60.490
  H     -236.987    -115.352      59.606

 6  7  8  9  10  11  12  13  14  15  16  26  31  32  33  34  35 0
 6-311+G(2d,p)
 ****
 36  37 0
 6-311+G(2d,p)
 ****
 1  2  3  4  5  17  18  19  20  21  22  23  24  25 0
 3-21G
 ****
 27  28  29  30  38  39  40  41  42  43  44  45 0
 3-21G
 ****


