%nproc=1
%NoSave
%Mem=1900MB
#P OB98/GEN NMR

erre ene a

0 1
  C      809.552     581.129     -36.781
  O      810.262     580.132     -37.495
  H      808.481     580.979     -36.937
  H      809.826     582.123     -37.159
  H      809.760     581.074     -35.708
  P      811.832     579.956     -37.222
  C      812.663     580.688     -39.560
  O      812.581     581.009     -38.170
  C      813.561     581.682     -40.288
  O      813.829     581.163     -41.633
  C      812.943     583.088     -40.464
  O      814.021     584.034     -40.445
  C      812.352     582.976     -41.857
  O      811.989     584.230     -42.379
  C      813.469     582.209     -42.568
  N      813.073     581.658     -43.857
  C      814.045     581.596     -44.844
  O      815.210     581.963     -44.697
  N      813.627     581.111     -46.058
  C      812.362     580.692     -46.362
  O      812.049     580.244     -47.459
  C      811.371     580.809     -45.279
  C      811.761     581.275     -44.094
  O      812.347     578.554     -37.297
  O      812.040     580.581     -35.762
  H      812.051     579.864     -35.097
  H      811.476     584.120     -43.218
  H      814.323     581.058     -46.800
  H      810.353     580.500     -45.496
  H      811.057     581.380     -43.267
  H      814.355     582.846     -42.690
  H      811.429     582.383     -41.828
  H      812.220     583.336     -39.678
  H      814.528     581.737     -39.776
  H      811.648     580.732     -39.972
  H      813.062     579.675     -39.667
  P      814.319     584.998     -39.184
  C      813.788     587.265     -40.299
  O      813.422     586.328     -39.301
  O      815.777     585.284     -38.990
  O      813.721     584.240     -37.909
  H      814.295     584.398     -37.138
  H      813.116     588.097     -40.271
  H      813.738     586.799     -41.261
  H      814.786     587.606     -40.119

 6  7  8  9  10  11  12  13  14  15  16  27  31  32  33  34  35 0
 6-311+G(2d,p)
 ****
 36  37 0
 6-311+G(2d,p)
 ****
 1  2  3  4  5  17  18  19  20  21  22  23  24  25 0
 3-21G
 ****
 26  28  29  30  38  39  40  41  42  43  44  45 0
 3-21G
 ****


