%nproc=1
%NoSave
%Mem=1900MB
#P OB98/GEN NMR

erre ene a

0 1
  C      375.719     119.517     328.049
  O      376.937     119.174     327.408
  P      377.889     120.307     326.778
  C      376.635     119.893     324.555
  O      377.086     120.855     325.505
  C      377.022     120.338     323.144
  O      376.360     121.577     322.828
  C      378.510     120.599     322.950
  O      379.234     119.382     322.840
  C      378.486     121.468     321.696
  O      378.334     120.653     320.526
  C      377.214     122.312     321.921
  N      377.500     123.650     322.432
  C      377.972     124.584     321.505
  O      378.132     124.278     320.320
  N      378.234     125.862     321.930
  C      378.060     126.175     323.179
  N      378.267     127.473     323.532
  C      377.613     125.207     324.201
  C      377.348     123.980     323.761
  O      379.283     119.868     326.497
  O      377.788     121.528     327.800
  H      379.158     120.136     320.437
  H      378.451     121.487     328.533
  H      377.499     125.514     325.229
  H      377.002     123.218     324.442
  H      376.651     122.402     320.985
  H      379.391     122.074     321.571
  H      378.907     121.178     323.794
  H      376.673     119.570     322.439
  H      378.402     128.137     322.775
  H      375.545     119.822     324.621
  H      377.886     127.857     324.386
  H      377.070     118.917     324.794
  P      380.695     119.332     323.500
  C      381.815     118.902     321.196
  O      381.719     119.746     322.335
  O      380.944     117.764     323.708
  O      380.822     120.101     324.769
  H      380.793     117.518     324.643
  H      382.358     119.440     320.414
  H      380.820     118.643     320.821
  H      382.368     117.997     321.453
  H      375.237     118.628     328.397
  H      375.080     120.021     327.354
  H      375.922     120.161     328.879

 3  4  5  6  7  8  9  10  11  12  13  23  27  28  29  30  32 0
 6-311+G(2d,p)
 ****
 34  35 0
 6-311+G(2d,p)
 ****
 1  2  14  15  16  17  18  19  20  21  22  24  25  26 0
 3-21G
 ****
 31  33  36  37  38  39  40  41  42  43  44  45  46 0
 3-21G
 ****


