%nproc=1
%NoSave
%Mem=1900MB
#P OB98/GEN NMR

erre ene a

0 1
  C      -31.885     -60.432      61.234
  O      -32.795     -61.143      60.417
  H      -31.889     -60.842      62.247
  H      -30.882     -60.537      60.814
  H      -32.149     -59.370      61.259
  P      -34.340     -61.088      60.849
  C      -33.859     -63.127      62.382
  O      -34.433     -61.834      62.268
  C      -34.056     -63.666      63.796
  O      -33.547     -62.725      64.763
  C      -35.510     -63.911      64.187
  O      -35.996     -65.139      63.666
  C      -35.390     -63.958      65.703
  O      -34.893     -65.247      66.112
  C      -34.333     -62.877      65.974
  N      -36.556     -60.165      69.700
  C      -36.029     -61.407      69.682
  N      -35.435     -62.054      68.656
  C      -35.397     -61.273      67.564
  C      -35.871     -59.979      67.435
  C      -36.482     -59.417      68.569
  N      -37.080     -58.167      68.556
  N      -35.666     -59.507      66.154
  C      -35.094     -60.507      65.517
  N      -34.905     -61.593      66.328
  O      -35.029     -62.117      59.831
  O      -34.970     -59.738      60.784
  H      -35.537     -65.909      65.795
  H      -35.414     -61.620      59.085
  H      -36.095     -61.960      70.613
  H      -34.807     -60.493      64.474
  H      -33.641     -63.167      66.774
  H      -36.344     -63.802      66.215
  H      -36.151     -63.069      63.905
  H      -33.466     -64.587      63.890
  H      -32.787     -63.071      62.163
  H      -37.849     -58.078      69.214
  H      -37.226     -57.783      67.630
  H      -34.337     -63.788      61.653
  P      -37.525     -65.190      63.182
  C      -38.232     -65.979      65.541
  O      -38.427     -65.030      64.502
  O      -37.717     -66.726      62.773
  O      -37.866     -64.283      62.051
  H      -38.026     -66.784      61.848
  H      -38.891     -65.758      66.354
  H      -37.218     -65.933      65.881
  H      -38.440     -66.961      65.171

 6  7  8  9  10  11  12  13  14  15  25  28  32  33  34  35 0
 6-311+G(2d,p)
 ****
 36  39  40 0
 6-311+G(2d,p)
 ****
 1  2  3  4  5  16  17  18  19  20  21  22  23  24 0
 3-21G
 ****
 26  27  29  30  31  37  38  41  42  43  44  45  46  47  48 0
 3-21G
 ****


