%nproc=1
%NoSave
%Mem=1900MB
#P OB98/GEN NMR

erre ene a

0 1
  C      -42.423     266.749      76.952
  O      -42.171     265.553      77.662
  H      -42.948     266.504      76.026
  H      -41.480     267.244      76.703
  H      -43.048     267.419      77.548
  P      -41.420     265.698      79.073
  C      -39.211     266.888      79.758
  O      -39.933     266.199      78.743
  C      -37.742     266.993      79.361
  O      -37.137     265.680      79.372
  C      -37.521     267.532      77.954
  O      -37.655     268.939      77.886
  C      -36.107     267.043      77.671
  O      -35.127     267.927      78.228
  C      -36.072     265.690      78.391
  N      -34.059     263.356      74.321
  C      -33.626     264.392      75.072
  N      -34.217     264.949      76.151
  C      -35.357     264.301      76.452
  C      -35.921     263.227      75.783
  C      -35.218     262.744      74.667
  N      -35.667     261.705      73.887
  N      -37.116     262.864      76.367
  C      -37.272     263.698      77.377
  N      -36.232     264.580      77.470
  O      -41.218     264.179      79.533
  O      -42.149     266.498      80.100
  H      -34.317     267.398      78.347
  H      -41.904     263.942      80.185
  H      -32.691     264.842      74.759
  H      -38.113     263.705      78.058
  H      -35.132     265.531      78.930
  H      -35.926     266.976      76.599
  H      -38.209     267.044      77.252
  H      -37.222     267.615      80.103
  H      -39.292     266.334      80.699
  H      -39.649     267.882      79.891
  H      -35.146     261.458      73.062
  H      -36.585     261.321      74.067
  P      -38.404     269.555      76.608
  C      -37.911     269.493      74.049
  O      -37.392     269.454      75.370
  O      -38.467     271.123      76.923
  O      -39.757     268.986      76.347
  H      -39.300     271.496      76.575
  H      -37.107     269.415      73.347
  H      -38.429     270.417      73.896
  H      -38.588     268.677      73.908

 6  7  8  9  10  11  12  13  14  15  25  28  32  33  34  35 0
 6-311+G(2d,p)
 ****
 36  37  40 0
 6-311+G(2d,p)
 ****
 1  2  3  4  5  16  17  18  19  20  21  22  23  24 0
 3-21G
 ****
 26  27  29  30  31  38  39 41  42  43  44  45  46  47  48 0
 3-21G
 ****


