%nproc=1
%NoSave
%Mem=1900MB
#P OB98/GEN NMR

erre ene a

0 1
  C     -101.566     201.246     -37.438
  O     -100.268     201.601     -36.994
  P      -99.913     201.609     -35.434
  C     -100.134     203.277     -33.501
  O     -100.617     202.900     -34.784
  C     -100.836     204.532     -32.988
  O     -102.274     204.315     -33.005
  C     -100.458     204.945     -31.556
  O     -100.494     206.377     -31.509
  C     -101.599     204.377     -30.726
  O     -101.732     205.005     -29.459
  C     -102.768     204.612     -31.685
  N     -106.912     204.061     -28.728
  C     -105.932     204.992     -28.736
  N     -104.849     205.053     -29.541
  C     -104.826     204.021     -30.400
  C     -105.738     202.978     -30.480
  C     -106.830     203.029     -29.602
  N     -107.856     202.106     -29.596
  N     -105.344     202.069     -31.453
  C     -104.222     202.561     -31.940
  N     -103.907     203.775     -31.377
  O      -98.461     201.462     -35.111
  O     -100.761     200.390     -34.832
  H     -100.874     204.955     -28.996
  H     -100.168     199.646     -34.629
  H     -106.039     205.800     -28.015
  H     -103.604     202.089     -32.691
  H     -103.102     205.656     -31.667
  H     -101.436     203.303     -30.560
  H      -99.476     204.577     -31.226
  H     -100.628     205.355     -33.686
  H      -99.058     203.473     -33.587
  H     -108.660     202.311     -29.016
  H     -107.970     201.491     -30.403
  H     -100.277     202.449     -32.791
  P      -99.596     207.169     -30.448
  C      -99.631     207.532     -27.912
  O     -100.136     206.768     -28.994
  O      -99.462     208.641     -30.694
  O      -98.175     206.426     -30.531
  H      -97.487     206.992     -30.144
  H      -98.637     207.165     -27.635
  H     -100.304     207.415     -27.052
  H      -99.567     208.595     -28.173
  H     -101.605     201.301     -38.506
  H     -102.283     201.921     -37.020
  H     -101.790     200.248     -37.123

 3  4  5  6  7  8  9  10  11  12  22  25  29  30  31  32 0
 6-311+G(2d,p)
 ****
 33  36  37 0
 6-311+G(2d,p)
 ****
 1  2  13  14  15  16  17  18  19  20  21  23  24  26 0
 3-21G
 ****
 27  28  34  35  38  39  40  41  42  43  44  45  46  47  48 0
 3-21G
 ****


