%nproc=1
%NoSave
%Mem=1900MB
#P OB98/GEN NMR

erre ene a

0 1
  C     -206.144    -139.936       8.072
  O     -204.881    -139.273       8.179
  P     -204.825    -137.758       7.652
  C     -203.614    -138.276       5.413
  O     -204.790    -137.796       6.048
  C     -203.741    -138.182       3.889
  O     -204.200    -136.888       3.458
  C     -202.425    -138.427       3.159
  O     -202.163    -139.814       3.083
  C     -202.704    -137.792       1.803
  O     -203.403    -138.704       0.929
  C     -203.604    -136.601       2.165
  N     -202.286    -132.491      -0.501
  C     -202.849    -133.682      -0.925
  N     -203.117    -133.781      -2.244
  N     -203.116    -134.685      -0.129
  C     -202.801    -134.441       1.165
  C     -202.267    -133.295       1.712
  C     -201.968    -132.197       0.821
  O     -201.493    -131.116       1.150
  N     -202.138    -133.402       3.075
  C     -202.472    -134.656       3.329
  N     -202.944    -135.309       2.214
  O     -203.353    -137.279       8.060
  O     -205.875    -136.882       8.249
  H     -204.264    -138.930       1.328
  H     -203.409    -136.622       8.781
  H     -202.093    -131.757      -1.157
  H     -202.417    -135.126       4.297
  H     -204.431    -136.492       1.451
  H     -201.783    -137.518       1.282
  H     -202.936    -133.053      -2.915
  H     -201.609    -137.893       3.663
  H     -203.535    -134.643      -2.576
  H     -204.482    -138.929       3.575
  H     -203.430    -139.312       5.706
  H     -202.758    -137.691       5.770
  P     -201.001    -140.411       4.015
  C     -199.149    -140.107       2.215
  O     -199.613    -139.785       3.514
  O     -200.921    -141.945       3.556
  O     -201.264    -140.296       5.479
  H     -200.851    -142.516       4.348
  H     -198.558    -139.270       1.835
  H     -199.976    -140.299       1.524
  H     -198.513    -140.997       2.274
  H     -206.057    -140.932       8.452
  H     -206.443    -139.971       7.045
  H     -206.877    -139.401       8.639

 3  4  5  6  7  8  9  10  11  12  23  26  30  31 0
 6-311+G(2d,p)
 ****
 33  35  36  37  38 0
 6-311+G(2d,p)
 ****
 1  2  13  14  15  16  17  18  19  20  21  22  24  25 0
 3-21G
 ****
 27  28  29  32  34  39  40  41  42  43  44  45  46  47  48  49 0
 3-21G
 ****


