%nproc=1
%NoSave
%Mem=1900MB
#P OB98/GEN NMR

erre ene a

0 1
  C       70.577    -188.335    -182.412
  O       71.299    -188.153    -181.212
  H       70.122    -189.328    -182.396
  H       71.243    -188.269    -183.277
  H       69.783    -187.588    -182.495
  P       72.162    -186.809    -181.039
  C       74.427    -186.167    -182.125
  O       73.182    -186.834    -182.282
  C       75.425    -186.661    -183.170
  O       75.664    -188.078    -183.031
  C       74.979    -186.483    -184.619
  O       75.048    -185.140    -185.068
  C       75.984    -187.384    -185.316
  O       77.261    -186.722    -185.382
  C       76.035    -188.587    -184.343
  N       75.149    -189.679    -184.739
  C       75.668    -190.976    -184.645
  O       76.817    -191.162    -184.248
  N       74.886    -192.033    -185.042
  C       73.697    -191.814    -185.510
  N       72.980    -192.892    -185.935
  C       73.102    -190.468    -185.608
  C       73.874    -189.457    -185.216
  O       72.792    -186.595    -179.700
  O       71.162    -185.635    -181.467
  H       77.836    -187.266    -185.949
  H       71.647    -184.780    -181.367
  H       72.109    -190.339    -186.013
  H       73.515    -188.436    -185.275
  H       77.057    -188.976    -184.256
  H       75.698    -187.640    -186.339
  H       73.977    -186.894    -184.771
  H       76.381    -186.156    -182.976
  H       73.436    -193.795    -185.892
  H       74.790    -186.361    -181.112
  H       72.184    -192.788    -186.553
  H       74.295    -185.089    -182.256
  P       74.041    -184.685    -186.233
  C       74.634    -183.634    -188.543
  O       74.895    -184.653    -187.592
  O       73.793    -183.141    -185.907
  O       72.767    -185.464    -186.331
  H       72.989    -183.021    -185.364
  H       75.284    -183.756    -189.384
  H       74.804    -182.677    -188.096
  H       73.616    -183.700    -188.867

 6  7  8  9  10  11  12  13  14  15  16  26  30  31  32  33  35 0
 6-311+G(2d,p)
 ****
 37  38 0
 6-311+G(2d,p)
 ****
 1  2  3  4  5  17  18  19  20  21  22  23  24  25 0
 3-21G
 ****
 27  28  29  34  36  39  40  41  42  43  44  45  46 0
 3-21G
 ****


