%nproc=1
%NoSave
%Mem=1900MB
#P OB98/GEN NMR

erre ene a

0 1
  C      886.653     -91.948    -165.850
  O      885.558     -92.842    -165.782
  P      884.036     -92.301    -165.833
  C      883.757     -93.006    -163.346
  O      883.678     -91.947    -164.304
  C      883.416     -92.468    -161.973
  O      884.451     -91.564    -161.523
  C      882.102     -91.693    -161.877
  O      880.983     -92.552    -161.909
  C      882.317     -90.913    -160.586
  O      882.052     -91.745    -159.452
  C      883.823     -90.585    -160.649
  N      884.082     -89.221    -161.116
  C      883.852     -88.187    -160.190
  O      883.442     -88.429    -159.058
  N      884.115     -86.884    -160.578
  C      884.543     -86.651    -161.772
  N      884.853     -85.352    -162.072
  C      884.750     -87.694    -162.801
  C      884.507     -88.947    -162.411
  O      883.078     -93.215    -166.503
  O      884.154     -90.859    -166.507
  H      882.645     -92.519    -159.521
  H      884.096     -90.870    -167.496
  H      885.106     -87.432    -163.779
  H      884.658     -89.763    -163.078
  H      884.275     -90.714    -159.671
  H      881.681     -90.021    -160.522
  H      882.032     -90.999    -162.726
  H      883.383     -93.316    -161.264
  H      884.852     -84.697    -161.295
  H      884.787     -93.396    -163.344
  H      885.447     -85.121    -162.858
  H      883.070     -93.813    -163.656
  P      879.527     -91.898    -161.909
  C      878.769     -93.012    -159.683
  O      879.084     -91.817    -160.363
  O      878.608     -93.041    -162.525
  O      879.427     -90.620    -162.680
  H      878.415     -92.860    -163.456
  H      878.715     -92.811    -158.618
  H      879.541     -93.776    -159.875
  H      877.783     -93.371    -160.028
  H      887.568     -92.500    -165.801
  H      886.605     -91.263    -165.030
  H      886.613     -91.405    -166.771

 3  4  5  6  7  8  9  10  11  12  13  23  27  28  29  30  32 0
 6-311+G(2d,p)
 ****
 34  35 0
 6-311+G(2d,p)
 ****
 1  2  14  15  16  17  18  19  20  21  22  24  25  26 0
 3-21G
 ****
 31  33  36  37  38  39  40  41  42  43  44  45  46 0
 3-21G
 ****


