%nproc=1
%NoSave
%Mem=1900MB
#P OB98/GEN NMR

erre ene a

0 1
  C      257.927     430.258    -634.411
  O      257.901     431.178    -635.482
  H      257.783     430.805    -633.475
  H      258.888     429.740    -634.372
  H      257.116     429.528    -634.515
  P      258.154     430.637    -636.970
  C      260.147     432.249    -637.250
  O      258.896     431.816    -637.773
  C      261.038     432.782    -638.392
  O      261.349     431.666    -639.268
  C      260.340     433.869    -639.230
  O      261.113     435.064    -639.350
  C      259.955     433.136    -640.516
  O      259.832     433.968    -641.649
  C      261.035     432.048    -640.619
  N      260.619     430.885    -641.405
  C      260.700     430.990    -642.793
  O      261.112     431.977    -643.414
  N      260.285     429.888    -643.491
  C      259.815     428.725    -642.960
  O      259.462     427.762    -643.639
  C      259.734     428.684    -641.491
  C      260.131     429.743    -640.789
  O      256.965     430.058    -637.662
  O      259.314     429.539    -636.786
  H      259.565     433.411    -642.403
  H      258.924     428.645    -636.824
  H      260.346     429.944    -644.503
  H      259.345     427.779    -641.037
  H      260.088     429.752    -639.709
  H      261.940     432.453    -641.083
  H      258.969     432.654    -640.355
  H      259.421     434.219    -638.723
  H      261.982     433.137    -637.963
  H      260.630     431.394    -636.763
  H      259.989     433.040    -636.511
  P      261.232     436.189    -638.227
  C      259.813     438.008    -639.482
  O      261.071     437.620    -638.915
  O      262.369     436.025    -637.268
  O      259.857     436.021    -637.386
  H      260.066     436.255    -636.449
  H      259.896     438.992    -639.894
  H      259.062     438.003    -638.720
  H      259.542     437.319    -640.255

 6  7  8  9  10  11  12  13  14  15  16  26  31  32  33  34  35 0
 6-311+G(2d,p)
 ****
 36  37 0
 6-311+G(2d,p)
 ****
 1  2  3  4  5  17  18  19  20  21  22  23  24  25 0
 3-21G
 ****
 27  28  29  30  38  39  40  41  42  43  44  45 0
 3-21G
 ****


