%nproc=1
%NoSave
%Mem=1900MB
#P OB98/GEN NMR

erre ene a

0 1
  C      -50.456     483.466    -280.942
  O      -49.097     483.066    -280.727
  P      -48.203     483.844    -279.643
  C      -48.253     481.990    -277.839
  O      -48.592     483.330    -278.175
  C      -47.415     481.967    -276.552
  O      -48.095     482.661    -275.469
  C      -47.184     480.558    -276.024
  O      -46.330     479.735    -276.782
  C      -46.804     480.817    -274.573
  O      -45.418     481.149    -274.446
  C      -47.687     482.036    -274.235
  N      -48.850     481.675    -273.413
  C      -48.581     481.060    -272.196
  O      -47.442     480.779    -271.825
  N      -49.669     480.739    -271.433
  C      -50.979     480.942    -271.772
  O      -51.914     480.614    -271.057
  C      -51.204     481.572    -273.079
  C      -50.149     481.903    -273.828
  O      -48.136     485.327    -279.809
  O      -46.749     483.196    -279.860
  H      -45.217     481.824    -275.116
  H      -46.092     483.915    -279.799
  H      -49.487     480.299    -270.544
  H      -52.228     481.737    -273.386
  H      -50.298     482.370    -274.805
  H      -47.112     482.787    -273.675
  H      -46.980     479.931    -273.951
  H      -48.154     480.038    -276.008
  H      -46.474     482.486    -276.738
  H      -47.696     481.531    -278.658
  H      -49.173     481.408    -277.723
  P      -46.860     478.674    -277.870
  C      -46.314     479.811    -280.139
  O      -47.299     479.484    -279.182
  O      -47.782     477.596    -277.392
  O      -45.485     478.002    -278.356
  H      -45.665     477.065    -278.578
  H      -46.781     480.374    -280.950
  H      -45.856     478.911    -280.551
  H      -45.537     480.441    -279.685
  H      -50.897     482.844    -281.693
  H      -50.481     484.486    -281.265
  H      -51.006     483.367    -280.029

 3  4  5  6  7  8  9  10  11  12  13  23  28  29  30  31  32 0
 6-311+G(2d,p)
 ****
 33  34 0
 6-311+G(2d,p)
 ****
 1  2  14  15  16  17  18  19  20  21  22  24  25  26  27 0
 3-21G
 ****
 35  36  37  38  39  40  41  42  43  44  45 0
 3-21G
 ****


