%nproc=1
%NoSave
%Mem=1900MB
#P OB98/GEN NMR

erre ene a

0 1
  C      397.072     470.836    -358.881
  O      398.413     471.264    -359.036
  P      398.748     472.226    -360.276
  C      396.753     473.606    -359.335
  O      397.441     473.127    -360.494
  C      396.762     475.133    -359.305
  O      398.111     475.610    -359.121
  C      396.260     475.784    -360.577
  O      394.855     475.746    -360.640
  C      396.841     477.189    -360.442
  O      395.957     478.036    -359.684
  C      398.161     476.939    -359.675
  N      399.333     477.124    -360.519
  C      399.651     478.454    -360.837
  O      398.941     479.377    -360.426
  N      400.743     478.688    -361.646
  C      401.442     477.698    -362.088
  N      402.507     477.997    -362.881
  C      401.126     476.290    -361.798
  C      400.070     476.071    -361.012
  O      398.721     471.222    -361.522
  O      400.043     472.959    -360.163
  H      396.036     477.724    -358.749
  H      399.282     471.552    -362.247
  H      401.740     475.488    -362.197
  H      399.764     475.067    -360.749
  H      398.243     477.633    -358.826
  H      396.974     477.672    -361.417
  H      396.703     475.292    -361.459
  H      396.167     475.464    -358.440
  H      402.690     478.967    -363.076
  H      397.253     473.228    -358.432
  H      403.123     477.294    -363.267
  H      395.726     473.224    -359.354
  P      394.160     475.855    -362.082
  C      393.420     473.448    -362.524
  O      394.399     474.426    -362.770
  O      395.207     476.786    -362.874
  O      392.774     476.398    -362.139
  H      394.839     477.018    -363.750
  H      393.616     472.586    -363.168
  H      392.424     473.837    -362.756
  H      393.458     473.120    -361.481
  H      396.996     470.205    -358.020
  H      396.769     470.291    -359.750
  H      396.438     471.689    -358.755

 3  4  5  6  7  8  9  10  11  12  13  21  23  27  28  29  30  32 0
 6-311+G(2d,p)
 ****
 34  35 0
 6-311+G(2d,p)
 ****
 1  2  14  15  16  17  18  19  20  22  24  25  26 0
 3-21G
 ****
 31  33  36  37  38  39  40  41  42  43  44  45  46 0
 3-21G
 ****


