%nproc=1
%NoSave
%Mem=1900MB
#P OB98/GEN NMR

erre ene a

0 1
  C     -753.844     405.629      48.638
  O     -754.360     406.397      47.547
  P     -755.696     407.243      47.805
  C     -757.079     405.179      46.970
  O     -756.817     406.575      46.876
  C     -758.499     404.877      46.485
  O     -759.481     405.474      47.382
  C     -758.819     405.440      45.111
  O     -758.198     404.675      44.085
  C     -760.343     405.380      45.121
  O     -760.795     404.053      44.817
  C     -760.667     405.733      46.584
  N     -761.132     407.102      46.758
  C     -762.507     407.289      46.617
  O     -763.291     406.385      46.339
  N     -762.960     408.573      46.784
  C     -762.174     409.670      47.044
  O     -762.633     410.791      47.196
  C     -760.726     409.414      47.135
  C     -760.276     408.160      46.987
  O     -755.338     408.618      47.075
  O     -756.039     407.363      49.249
  H     -754.794     408.496      46.280
  H     -760.497     403.864      43.900
  H     -763.944     408.734      46.702
  H     -760.077     410.261      47.313
  H     -759.216     407.956      47.042
  H     -761.442     405.059      46.972
  H     -760.792     406.052      44.375
  H     -758.489     406.484      45.042
  H     -758.644     403.791      46.499
  H     -756.979     404.851      48.008
  H     -756.342     404.642      46.372
  P     -756.788     405.215      43.531
  C     -757.942     406.144      41.379
  O     -756.942     405.329      41.940
  O     -755.862     403.917      43.747
  O     -756.298     406.444      44.221
  H     -756.295     403.094      43.469
  H     -757.670     406.366      40.342
  H     -758.042     407.087      41.926
  H     -758.898     405.615      41.386
  H     -752.956     405.119      48.327
  H     -754.576     404.913      48.948
  H     -753.613     406.280      49.455

 3  4  5  6  7  8  9  10  11  12  13  24  28  29  30  31  32 0
 6-311+G(2d,p)
 ****
 33  34 0
 6-311+G(2d,p)
 ****
 1  2  14  15  16  17  18  19  20  21  22  23  25  26  27 0
 3-21G
 ****
 35  36  37  38  39  40  41  42  43  44  45 0
 3-21G
 ****


