%nproc=1
%NoSave
%Mem=1900MB
#P OB98/GEN NMR

erre ene a

0 1
  C       55.125      10.054     -24.330
  O       55.057      10.592     -25.633
  H       55.488      10.830     -23.652
  H       55.825       9.215     -24.311
  H       54.143       9.722     -23.987
  P       54.260       9.784     -26.761
  C       51.905       8.757     -27.005
  O       52.764       9.571     -26.221
  C       50.438       9.155     -26.794
  O       50.112       9.018     -25.387
  C       50.195      10.620     -27.168
  O       48.855      10.851     -27.592
  C       50.428      11.345     -25.852
  O       49.785      12.618     -25.791
  C       49.885      10.331     -24.848
  N       49.587       9.149     -19.899
  C       48.634       9.011     -20.888
  N       47.445       8.486     -20.508
  N       48.820       9.376     -22.130
  C       50.027       9.950     -22.350
  C       51.044      10.162     -21.447
  C       50.839       9.722     -20.083
  O       51.641       9.841     -19.163
  N       52.116      10.781     -22.038
  C       51.749      10.947     -23.293
  N       50.498      10.436     -23.537
  O       54.872       8.306     -26.670
  O       54.364      10.337     -28.149
  H       49.886      12.952     -24.881
  H       54.730       7.828     -27.507
  H       49.404       8.825     -18.966
  H       52.352      11.413     -24.062
  H       48.804      10.457     -24.716
  H       51.501      11.520     -25.743
  H       47.200       8.380     -19.535
  H       50.876      10.977     -27.937
  H       46.652       8.667     -21.128
  H       49.781       8.469     -27.340
  H       52.071       7.724     -26.692
  H       52.175       8.824     -28.060
  P       48.479      10.577     -29.125
  C       50.191       8.766     -30.014
  O       48.907       9.095     -29.532
  O       49.495      11.506     -29.936
  O       47.052      10.871     -29.472
  H       49.009      12.198     -30.422
  H       50.237       7.717     -30.218
  H       50.924       9.019     -29.277
  H       50.385       9.313     -30.913

 6  7  8  9  10  11  12  13  14  15  26  29  33  34 0
 6-311+G(2d,p)
 ****
 36  38  39  40  41 0
 6-311+G(2d,p)
 ****
 1  2  3  4  5  16  17  18  19  20  21  22  23  24  25 0
 3-21G
 ****
 27  28  30  31  32  35  37  42  43  44  45  46  47 0
 3-21G
 ****
 48  49 0
 3-21G
 ****


