%nproc=1
%NoSave
%Mem=1900MB
#P OB98/GEN NMR

erre ene a

0 1
  C      -20.567       6.315    -136.532
  O      -19.975       6.405    -135.254
  P      -18.393       6.575    -135.080
  C      -16.295       5.179    -135.617
  O      -17.715       5.250    -135.687
  C      -15.756       4.226    -136.689
  O      -16.241       4.670    -137.995
  C      -14.216       4.194    -136.742
  O      -13.650       2.885    -136.667
  C      -13.908       4.967    -138.014
  O      -12.627       4.701    -138.553
  C      -15.114       4.615    -138.891
  N      -15.262       5.519    -140.029
  C      -15.178       4.959    -141.300
  O      -14.999       3.765    -141.523
  N      -15.244       5.836    -142.347
  C      -15.268       7.195    -142.253
  O      -15.226       7.924    -143.234
  C      -15.316       7.731    -140.884
  C      -15.334       6.886    -139.850
  O      -17.936       6.922    -133.703
  O      -18.023       7.673    -136.185
  H      -12.555       5.173    -139.404
  H      -18.242       7.424    -137.100
  H      -15.183       5.443    -143.273
  H      -15.325       8.806    -140.778
  H      -15.370       7.252    -138.830
  H      -15.049       3.594    -139.269
  H      -13.935       6.036    -137.770
  H      -13.782       4.719    -135.884
  H      -16.165       3.232    -136.488
  H      -16.010       4.807    -134.631
  H      -15.868       6.182    -135.727
  P      -12.133       2.518    -137.022
  C      -10.973       1.635    -139.175
  O      -12.002       2.423    -138.614
  O      -11.567       1.359    -136.272
  O      -11.333       3.860    -136.672
  H      -10.420       3.637    -136.410
  H      -10.703       2.053    -140.149
  H      -11.340       0.616    -139.323
  H      -10.085       1.617    -138.537
  H      -21.626       6.206    -136.428
  H      -20.171       5.467    -137.050
  H      -20.353       7.204    -137.088

 3  4  5  6  7  8  9  10  11  12  13  23  28  29  30  31  32 0
 6-311+G(2d,p)
 ****
 33  34 0
 6-311+G(2d,p)
 ****
 1  2  14  15  16  17  18  19  20  21  22  24  25  26  27 0
 3-21G
 ****
 35  36  37  38  39  40  41  42  43  44  45 0
 3-21G
 ****


