%nproc=1
%NoSave
%Mem=1900MB
#P OB98/GEN NMR

erre ene a

0 1
  C      210.246    -182.464    -375.315
  O      209.581    -181.925    -374.171
  P      208.581    -180.680    -374.192
  C      206.554    -181.976    -373.126
  O      207.084    -181.239    -374.224
  C      205.025    -182.090    -373.222
  O      204.428    -180.872    -372.680
  C      204.532    -182.225    -374.672
  O      203.494    -183.178    -374.843
  C      204.227    -180.787    -375.062
  O      203.359    -180.673    -376.175
  C      203.709    -180.209    -373.746
  N      202.778    -175.647    -375.839
  C      202.563    -176.905    -376.356
  N      202.052    -176.969    -377.603
  N      202.842    -178.007    -375.713
  C      203.430    -177.808    -374.514
  C      203.708    -176.608    -373.896
  C      203.346    -175.389    -374.592
  O      203.494    -174.244    -374.170
  N      204.287    -176.794    -372.676
  C      204.382    -178.114    -372.552
  N      203.864    -178.765    -373.653
  O      208.913    -179.588    -375.160
  O      208.706    -180.064    -372.708
  H      202.464    -180.938    -375.890
  H      208.567    -179.101    -372.794
  H      202.517    -174.825    -376.369
  H      204.798    -178.636    -371.701
  H      202.649    -180.405    -373.601
  H      205.173    -180.306    -375.338
  H      201.923    -176.163    -378.196
  H      205.336    -182.605    -375.322
  H      202.109    -177.880    -378.054
  H      204.689    -182.935    -372.606
  H      206.826    -181.420    -372.228
  H      207.023    -182.960    -373.060
  P      203.604    -184.725    -375.222
  C      202.320    -185.609    -373.174
  O      203.565    -185.585    -373.864
  O      205.112    -184.921    -375.725
  O      202.647    -185.185    -376.272
  H      205.110    -185.218    -376.648
  H      202.496    -185.991    -372.165
  H      201.629    -186.271    -373.695
  H      201.906    -184.605    -373.109
  H      210.854    -183.292    -375.017
  H      210.863    -181.710    -375.757
  H      209.519    -182.794    -376.028

 3  4  5  6  7  8  9  10  11  12  23  26  30  31 0
 6-311+G(2d,p)
 ****
 33  35  36  37  38 0
 6-311+G(2d,p)
 ****
 1  2  13  14  15  16  17  18  19  20  21  22  24  25 0
 3-21G
 ****
 27  28  29  32  34  39  40  41  42  43  44  45  46  47  48  49 0
 3-21G
 ****


