%nproc=1
%NoSave
%Mem=1900MB
#P OB98/GEN NMR

erre ene a

0 1
  C      202.859     333.140    -167.254
  O      202.990     334.013    -166.149
  H      202.567     333.724    -168.130
  H      202.084     332.394    -167.052
  H      203.813     332.643    -167.464
  P      203.590     333.384    -164.798
  C      202.536     331.742    -163.038
  O      202.339     332.735    -164.031
  C      201.194     331.258    -162.487
  O      200.499     332.388    -161.902
  C      200.278     330.646    -163.547
  O      199.544     329.573    -162.945
  C      199.324     331.777    -163.885
  O      198.098     331.302    -164.436
  C      199.199     332.480    -162.524
  N      198.758     333.867    -162.651
  C      197.421     334.071    -162.998
  O      196.674     333.111    -163.194
  N      196.962     335.357    -163.154
  C      197.786     336.350    -163.042
  N      197.280     337.597    -163.236
  C      199.220     336.180    -162.721
  C      199.630     334.927    -162.529
  O      203.921     334.696    -163.945
  O      204.752     332.473    -165.005
  H      198.281     330.919    -165.322
  H      203.213     335.363    -163.969
  H      199.872     337.041    -162.645
  H      200.664     334.709    -162.283
  H      198.483     331.948    -161.882
  H      199.783     332.449    -164.618
  H      200.826     330.277    -164.419
  H      201.386     330.548    -161.674
  H      196.295     337.668    -163.475
  H      203.144     332.139    -162.218
  H      197.838     338.439    -163.227
  H      203.083     330.909    -163.496
  P      200.177     328.101    -162.926
  C      200.883     326.273    -164.614
  O      200.244     327.531    -164.421
  O      199.603     327.167    -161.914
  O      201.726     328.389    -162.597
  H      202.027     327.704    -161.971
  H      200.856     326.015    -165.652
  H      200.373     325.523    -164.047
  H      201.900     326.336    -164.288

 6  7  8  9  10  11  12  13  14  15  16  26  30  31  32  33  35 0
 6-311+G(2d,p)
 ****
 37  38 0
 6-311+G(2d,p)
 ****
 1  2  3  4  5  17  18  19  20  21  22  23  24  25 0
 3-21G
 ****
 27  28  29  34  36  39  40  41  42  43  44  45  46 0
 3-21G
 ****


