%nproc=1
%NoSave
%Mem=1900MB
#P OB98/GEN NMR

erre ene a

0 1
  C       -7.210      12.889      21.383
  O       -8.123      13.957      21.176
  P       -9.100      14.365      22.380
  C      -11.086      13.293      21.104
  O      -10.358      13.368      22.321
  C      -12.327      12.415      21.256
  O      -11.936      11.139      21.832
  C      -13.417      13.004      22.157
  O      -14.679      12.571      21.637
  C      -13.168      12.321      23.488
  O      -14.316      12.345      24.330
  C      -12.749      10.934      23.008
  N      -12.576       6.698      25.864
  C      -13.453       7.114      24.926
  N      -13.432       8.255      24.207
  C      -12.368       9.005      24.541
  C      -11.411       8.728      25.501
  C      -11.538       7.506      26.183
  N      -10.641       7.076      27.132
  N      -10.490       9.752      25.576
  C      -10.884      10.631      24.679
  N      -11.999      10.211      24.012
  O       -9.706      15.760      21.883
  O       -8.447      14.499      23.712
  H      -14.103      11.862      25.151
  H       -9.370      16.487      22.443
  H      -14.278       6.437      24.720
  H      -10.402      11.577      24.477
  H      -13.610      10.318      22.720
  H      -12.350      12.824      24.015
  H      -13.392      14.097      22.232
  H      -12.727      12.207      20.256
  H      -10.441      12.856      20.336
  H      -10.724       6.133      27.474
  H       -9.766       7.578      27.240
  H      -11.371      14.300      20.785
  P      -15.817      13.687      21.466
  C      -17.198      12.911      23.518
  O      -16.435      13.940      22.919
  O      -16.980      12.911      20.686
  O      -15.372      14.903      20.723
  H      -17.504      13.541      20.158
  H      -17.047      12.943      24.600
  H      -16.909      11.921      23.150
  H      -18.257      13.077      23.302
  H       -6.631      12.737      20.496
  H       -7.752      11.996      21.612
  H       -6.558      13.130      22.197

 3  4  5  6  7  8  9  10  11  12  22  25  29  30  31  32 0
 6-311+G(2d,p)
 ****
 33  36  37 0
 6-311+G(2d,p)
 ****
 1  2  13  14  15  16  17  18  19  20  21  23  24  26 0
 3-21G
 ****
 27  28  34  35  38  39  40  41  42  43  44  45  46  47  48 0
 3-21G
 ****


