%nproc=1
%NoSave
%Mem=1900MB
#P OB98/GEN NMR

erre ene a

0 1
  C     -173.608     847.510    -161.910
  O     -172.810     848.521    -161.319
  H     -172.989     846.948    -162.613
  H     -174.439     847.963    -162.456
  H     -173.991     846.822    -161.151
  P     -173.434     849.401    -160.133
  C     -171.664     851.063    -161.010
  O     -172.437     850.635    -159.888
  C     -170.372     851.721    -160.519
  O     -170.675     852.921    -159.775
  C     -169.556     850.844    -159.571
  O     -168.858     849.840    -160.285
  C     -168.665     851.883    -158.904
  O     -167.546     852.215    -159.747
  C     -169.636     853.085    -158.774
  N     -170.205     853.199    -157.432
  C     -169.310     853.163    -156.367
  O     -168.093     853.012    -156.524
  N     -169.857     853.290    -155.122
  C     -171.193     853.329    -154.832
  O     -171.631     853.344    -153.688
  C     -172.092     853.328    -155.986
  C     -171.564     853.275    -157.216
  O     -173.816     848.649    -158.903
  O     -174.709     850.098    -160.809
  H     -166.999     851.408    -159.803
  H     -175.522     849.660    -160.498
  H     -169.215     853.257    -154.337
  H     -173.162     853.372    -155.794
  H     -172.225     853.270    -158.079
  H     -169.118     854.019    -159.016
  H     -168.259     851.538    -157.954
  H     -170.204     850.394    -158.810
  H     -169.773     852.010    -161.395
  H     -172.245     851.791    -161.578
  H     -171.440     850.197    -161.647
  P     -169.319     848.307    -160.158
  C     -167.071     847.665    -159.058
  O     -167.998     847.399    -160.119
  O     -170.367     847.869    -161.128
  O     -169.865     848.200    -158.654
  H     -170.813     847.937    -158.667
  H     -166.237     847.000    -159.138
  H     -167.556     847.517    -158.116
  H     -166.729     848.676    -159.128

 6  7  8  9  10  11  12  13  14  15  16  26  31  32  33  34  35 0
 6-311+G(2d,p)
 ****
 36  37 0
 6-311+G(2d,p)
 ****
 1  2  3  4  5  17  18  19  20  21  22  23  24  25 0
 3-21G
 ****
 27  28  29  30  38  39  40  41  42  43  44  45 0
 3-21G
 ****


