%nproc=1
%NoSave
%Mem=1900MB
#P OB98/GEN NMR

erre ene a

0 1
  C      270.585     192.709     -65.174
  O      269.493     191.950     -64.691
  H      270.392     193.766     -64.968
  H      270.697     192.572     -66.253
  H      271.504     192.410     -64.660
  P      269.565     190.362     -64.926
  C      269.729     189.368     -62.554
  O      268.863     189.737     -63.621
  C      268.920     189.080     -61.285
  O      268.297     190.312     -60.846
  C      267.813     188.046     -61.496
  O      267.716     187.218     -60.334
  C      266.557     188.887     -61.624
  O      265.378     188.170     -61.258
  C      266.883     190.073     -60.717
  N      263.750     193.711     -58.988
  C      264.439     192.739     -58.357
  N      265.268     191.815     -58.897
  C      265.388     192.002     -60.222
  C      264.745     192.947     -61.006
  C      263.883     193.831     -60.332
  N      263.157     194.807     -60.971
  N      265.092     192.791     -62.335
  C      265.938     191.775     -62.351
  N      266.135     191.258     -61.101
  O      270.910     189.816     -65.254
  O      268.443     190.155     -66.052
  H      265.296     187.397     -61.853
  H      267.639     190.665     -65.854
  H      264.305     192.686     -57.280
  H      266.422     191.376     -63.238
  H      266.658     189.870     -59.661
  H      266.438     189.218     -62.665
  H      267.978     187.425     -62.377
  H      269.612     188.771     -60.491
  H      270.447     190.174     -62.355
  H      262.572     195.412     -60.412
  H      263.255     194.927     -61.969
  H      270.285     188.478     -62.861
  P      267.782     185.628     -60.524
  C      270.266     185.437     -61.221
  O      269.285     185.140     -60.227
  O      267.169     185.092     -61.771
  O      266.997     185.094     -59.226
  H      266.473     184.308     -59.478
  H      271.218     185.062     -60.906
  H      270.327     186.497     -61.357
  H      269.989     184.975     -62.145

 6  7  8  9  10  11  12  13  14  15  25  28  32  33  34  35 0
 6-311+G(2d,p)
 ****
 36  39  40 0
 6-311+G(2d,p)
 ****
 1  2  3  4  5  16  17  18  19  20  21  22  23  24 0
 3-21G
 ****
 26  27  29  30  31  37  38  41  42  43  44  45  46  47 0
 3-21G
 ****
 48 0
 3-21G
 ****


