%nproc=1
%NoSave
%Mem=1900MB
#P OB98/GEN NMR

erre ene a

0 1
  C      141.411      61.075     -91.973
  O      140.580      61.024     -90.823
  P      139.473      62.171     -90.651
  C      137.553      60.808     -91.721
  O      138.397      61.945     -91.825
  C      136.086      61.213     -91.811
  O      135.268      60.011     -91.868
  C      135.587      62.053     -90.624
  O      134.771      63.128     -91.116
  C      134.682      61.098     -89.865
  O      133.696      61.786     -89.106
  C      134.129      60.263     -91.023
  N      131.594      56.244     -92.730
  C      132.324      57.187     -93.425
  N      132.331      57.069     -94.770
  N      132.987      58.158     -92.857
  C      132.917      58.133     -91.503
  C      132.233      57.248     -90.700
  C      131.457      56.214     -91.347
  O      130.717      55.404     -90.793
  N      132.415      57.536     -89.371
  C      133.204      58.595     -89.366
  N      133.494      59.024     -90.638
  O      140.255      63.492     -91.100
  O      138.913      62.315     -89.278
  H      133.243      61.118     -88.556
  H      140.220      64.157     -90.384
  H      131.088      55.528     -93.219
  H      133.557      59.102     -88.477
  H      133.400      60.847     -91.601
  H      135.290      60.490     -89.186
  H      131.874      56.323     -95.271
  H      136.385      62.455     -89.993
  H      132.880      57.736     -95.297
  H      135.929      61.747     -92.757
  H      137.729      60.314     -90.760
  H      137.800      60.109     -92.527
  P      134.940      64.537     -90.364
  C      136.322      65.877     -92.118
  O      136.313      65.155     -90.902
  O      135.272      64.116     -88.858
  O      133.740      65.420     -90.461
  H      135.021      64.828     -88.240
  H      135.311      66.069     -92.490
  H      136.868      65.301     -92.868
  H      136.829      66.833     -91.961
  H      142.096      60.253     -91.955
  H      141.957      61.995     -91.978
  H      140.806      61.015     -92.853

 3  4  5  6  7  8  9  10  11  12  23  26  30  31  33  0
 6-311+G(2d,p)
 ****
 35  36  37  38 0
 6-311+G(2d,p)
 ****
 1  2  13  14  15  16  17  18  19  20  21  22  24  25  27  28  29 0
 3-21G
 ****
 32  34  39  40  41  42  43  44  45  46  47  48  49 0
 3-21G
 ****


