%nproc=1
%NoSave
%Mem=1900MB
#P OB98/GEN NMR

erre ene a

0 1
  C      543.667    -467.145     413.281
  O      543.783    -466.284     412.149
  P      544.020    -467.029     410.734
  C      542.381    -465.679     409.222
  O      542.673    -466.914     409.870
  C      541.046    -465.103     409.742
  O      541.082    -464.768     411.134
  C      540.617    -463.814     408.995
  O      540.048    -464.139     407.746
  C      539.616    -463.245     410.026
  O      538.313    -463.823     409.838
  C      540.202    -463.643     411.342
  N      539.802    -459.534     414.299
  C      538.814    -460.268     413.697
  N      537.536    -459.869     413.921
  N      539.059    -461.306     412.935
  C      540.366    -461.578     412.808
  C      541.434    -460.934     413.399
  C      541.157    -459.808     414.265
  O      541.985    -459.120     414.828
  N      542.625    -461.565     413.094
  C      542.305    -462.500     412.192
  N      540.937    -462.595     412.051
  O      544.133    -468.571     411.129
  O      545.257    -466.551     410.023
  H      538.352    -464.779     409.958
  H      545.051    -468.882     411.007
  H      539.553    -458.746     414.891
  H      543.005    -463.089     411.681
  H      539.409    -463.990     412.048
  H      539.505    -462.169     409.852
  H      537.267    -459.103     414.465
  H      541.477    -463.146     408.903
  H      536.774    -460.421     413.452
  H      540.284    -465.882     409.609
  H      542.332    -465.816     408.139
  H      543.216    -464.969     409.438
  P      540.979    -464.051     406.444
  C      540.088    -466.269     405.373
  O      541.180    -465.574     405.874
  O      542.407    -463.641     407.047
  O      540.518    -463.047     405.439
  H      542.789    -462.934     406.531
  H      540.433    -466.933     404.616
  H      539.346    -465.566     404.903
  H      539.632    -466.805     406.193
  H      543.513    -466.557     414.162
  H      544.564    -467.718     413.387
  H      542.836    -467.805     413.143

 3  4  5  6  7  8  9  10  11  12  23  26  30  31 0
 6-311+G(2d,p)
 ****
 33  35  36  37  38 0
 6-311+G(2d,p)
 ****
 1  2  13  14  15  16  17  18  19  20  21  22  24  25 0
 3-21G
 ****
 27  28  29  32  34  39  40  41  42  43  44  45  46  47  48  49 0
 3-21G
 ****


