%nproc=1
%NoSave
%Mem=1900MB
#P OB98/GEN NMR

erre ene a

0 1
  C      326.955     253.932    -123.239
  O      326.505     255.269    -123.310
  H      327.607     253.735    -124.094
  H      326.106     253.246    -123.284
  H      327.524     253.759    -122.321
  P      325.695     255.879    -122.069
  C      323.315     255.590    -121.120
  O      324.334     255.042    -121.947
  C      321.941     255.225    -121.675
  O      321.668     255.989    -122.868
  C      321.804     253.763    -122.080
  O      321.654     252.934    -120.942
  C      320.584     253.834    -122.986
  O      319.374     253.871    -122.214
  C      320.818     255.180    -123.712
  N      321.400     255.022    -125.044
  C      320.572     254.480    -126.021
  O      319.421     254.109    -125.795
  N      321.119     254.363    -127.271
  C      322.411     254.649    -127.608
  O      322.868     254.476    -128.734
  C      323.251     255.186    -126.528
  C      322.716     255.345    -125.316
  O      325.523     257.361    -122.071
  O      326.533     255.387    -120.796
  H      318.635     253.855    -122.853
  H      327.098     256.111    -120.474
  H      320.539     253.961    -127.990
  H      324.281     255.419    -126.757
  H      323.320     255.734    -124.504
  H      319.872     255.724    -123.816
  H      320.504     252.974    -123.654
  H      322.667     253.451    -122.678
  H      321.188     255.494    -120.924
  H      323.425     256.681    -121.102
  H      323.439     255.203    -120.103
  P      322.217     251.437    -120.939
  C      321.125     249.198    -121.527
  O      321.274     250.563    -121.899
  O      322.449     250.848    -119.587
  O      323.584     251.538    -121.766
  H      324.345     251.474    -121.158
  H      320.482     248.706    -122.226
  H      320.698     249.140    -120.548
  H      322.083     248.722    -121.527

 6  7  8  9  10  11  12  13  14  15  16  26  31  32  33  34  35 0
 6-311+G(2d,p)
 ****
 36  37 0
 6-311+G(2d,p)
 ****
 1  2  3  4  5  17  18  19  20  21  22  23  24  25 0
 3-21G
 ****
 27  28  29  30  38  39  40  41  42  43  44  45 0
 3-21G
 ****


