%nproc=1
%NoSave
%Mem=1900MB
#P OB98/GEN NMR

erre ene a

0 1
  C      478.018    -103.674      41.031
  O      478.723    -104.873      41.315
  P      478.945    -105.989      40.185
  C      478.649    -108.015      41.745
  O      479.553    -107.280      40.925
  C      479.429    -108.900      42.729
  O      480.244    -109.845      41.965
  C      480.372    -108.101      43.645
  O      480.211    -108.355      45.045
  C      481.751    -108.416      43.079
  O      482.814    -108.194      43.992
  C      481.546    -109.853      42.583
  N      482.603    -110.275      41.654
  C      483.426    -111.319      42.060
  O      483.316    -111.916      43.128
  N      484.440    -111.643      41.202
  C      484.793    -110.972      40.071
  O      485.768    -111.256      39.412
  C      483.903    -109.838      39.713
  C      482.845    -109.565      40.492
  O      479.723    -105.551      38.988
  O      477.452    -106.470      39.845
  H      483.652    -108.325      43.502
  H      476.961    -106.836      40.607
  H      485.048    -112.396      41.484
  H      484.155    -109.275      38.831
  H      482.187    -108.744      40.252
  H      481.515    -110.560      43.408
  H      481.918    -107.754      42.220
  H      480.186    -107.015      43.554
  H      478.703    -109.472      43.317
  H      478.029    -108.653      41.106
  H      477.986    -107.327      42.275
  P      479.529    -107.360      46.091
  C      481.675    -106.010      46.635
  O      480.652    -106.854      47.107
  O      478.278    -107.882      46.741
  O      479.197    -106.051      45.222
  H      478.417    -105.607      45.586
  H      482.575    -106.160      47.251
  H      481.362    -104.968      46.741
  H      481.914    -106.213      45.592
  H      477.979    -103.066      41.911
  H      477.023    -103.911      40.717
  H      478.520    -103.141      40.251

 3  4  5  6  7  8  9  10  11  12  13  23  28  29  30  31  32 0
 6-311+G(2d,p)
 ****
 33  34 0
 6-311+G(2d,p)
 ****
 1  2  14  15  16  17  18  19  20  21  22  24  25  26  27 0
 3-21G
 ****
 35  36  37  38  39  40  41  42  43  44  45 0
 3-21G
 ****


