%nproc=1
%NoSave
%Mem=1900MB
#P OB98/GEN NMR

erre ene a

0 1
  C      127.537     126.734    -147.910
  O      127.917     127.186    -149.190
  H      126.626     126.136    -148.004
  H      127.329     127.585    -147.259
  H      128.323     126.112    -147.471
  P      129.320     127.956    -149.316
  C      131.565     126.938    -148.501
  O      130.459     126.825    -149.384
  C      132.566     125.810    -148.755
  O      131.897     124.538    -148.554
  C      133.154     125.814    -150.168
  O      134.531     125.441    -150.093
  C      132.373     124.728    -150.886
  O      133.090     124.172    -151.987
  C      132.088     123.745    -149.744
  N      130.923     122.912    -150.032
  C      131.155     121.541    -150.188
  O      132.298     121.093    -150.091
  N      130.104     120.723    -150.505
  C      128.935     121.238    -150.736
  N      127.938     120.377    -151.078
  C      128.659     122.686    -150.650
  C      129.685     123.455    -150.288
  O      129.525     128.595    -147.863
  O      129.395     128.976    -150.401
  H      133.985     123.912    -151.675
  H      130.014     129.437    -147.913
  H      127.675     123.069    -150.876
  H      129.581     124.528    -150.207
  H      132.954     123.093    -149.570
  H      131.435     125.144    -151.272
  H      133.066     126.784    -150.670
  H      133.361     125.875    -148.003
  H      128.174     119.393    -151.145
  H      131.206     126.869    -147.469
  H      127.005     120.670    -151.324
  H      132.045     127.914    -148.642
  P      135.558     126.570    -149.601
  C      136.572     127.209    -147.297
  O      135.463     126.672    -148.005
  O      134.886     127.929    -150.113
  O      136.941     126.399    -150.143
  H      135.400     128.295    -150.857
  H      136.358     127.211    -146.249
  H      136.754     128.211    -147.626
  H      137.438     126.609    -147.483

 6  7  8  9  10  11  12  13  14  15  16  26  30  31  32  33  35 0
 6-311+G(2d,p)
 ****
 37  38 0
 6-311+G(2d,p)
 ****
 1  2  3  4  5  17  18  19  20  21  22  23  24  25 0
 3-21G
 ****
 27  28  29  34  36  39  40  41  42  43  44  45  46 0
 3-21G
 ****


