%nproc=1
%NoSave
%Mem=1900MB
#P OB98/GEN NMR

erre ene a

0 1
  C      753.512    -895.010    -450.790
  O      753.271    -894.510    -449.496
  H      752.752    -894.610    -451.468
  H      753.458    -896.110    -450.808
  H      754.502    -894.680    -451.146
  P      754.264    -895.010    -448.339
  C      753.119    -897.330    -448.385
  O      753.453    -896.190    -447.597
  C      752.102    -898.200    -447.659
  O      752.729    -898.770    -446.487
  C      750.843    -897.450    -447.209
  O      749.701    -898.300    -447.366
  C      751.097    -897.190    -445.736
  O      749.871    -897.040    -444.986
  C      751.912    -898.430    -445.336
  N      751.814    -897.240    -440.374
  C      750.831    -897.560    -441.235
  N      750.953    -897.880    -442.561
  C      752.251    -897.900    -442.918
  C      753.348    -897.610    -442.157
  C      753.104    -897.250    -440.813
  N      754.098    -896.910    -439.932
  N      754.524    -897.700    -442.903
  C      754.104    -898.050    -444.110
  N      752.743    -898.180    -444.171
  O      754.802    -893.950    -447.440
  O      755.357    -895.820    -449.173
  H      749.309    -897.790    -445.155
  H      754.943    -896.400    -449.863
  H      749.827    -897.540    -440.851
  H      754.749    -898.220    -444.970
  H      751.280    -899.300    -445.106
  H      751.705    -896.270    -445.605
  H      750.699    -896.510    -447.761
  H      751.843    -899.060    -448.304
  H      754.021    -897.920    -448.613
  H      753.825    -896.680    -438.978
  H      755.070    -896.930    -440.226
  H      752.696    -896.980    -449.336
  P      749.169    -898.600    -448.851
  C      747.587    -896.560    -449.022
  O      747.697    -897.990    -448.993
  O      749.349    -900.000    -449.338
  O      750.045    -897.580    -449.731
  H      750.275    -898.020    -450.595
  H      746.558    -896.283    -449.119
  H      748.140    -896.177    -449.854
  H      747.981    -896.153    -448.114

 6  7  8  9  10  11  12  13  14  15  25  28  32  33  34  35 0
 6-311+G(2d,p)
 ****
 36  39  40 0
 6-311+G(2d,p)
 ****
 1  2  3  4  5  16  17  18  19  20  21  22  23  24 0
 3-21G
 ****
 26  27  29  30  31  37  38  41  42  43  44  45  46  47 0
 3-21G
 ****
 48 0
 3-21G
 ****


