%nproc=1
%NoSave
%Mem=1900MB
#P OB98/GEN NMR

erre ene a

0 1
  C     -216.871     220.812     175.036
  O     -218.158     220.934     174.462
  H     -216.661     219.754     175.209
  H     -216.835     221.340     175.994
  H     -216.116     221.218     174.357
  P     -218.677     222.428     174.189
  C     -220.024     222.666     176.390
  O     -218.905     223.098     175.630
  C     -220.281     223.624     177.552
  O     -221.487     223.257     178.257
  C     -219.163     223.671     178.586
  O     -218.131     224.552     178.179
  C     -219.912     224.171     179.811
  O     -220.100     225.603     179.755
  C     -221.260     223.444     179.681
  N     -221.866     221.208     184.167
  C     -221.768     222.545     183.845
  N     -221.811     223.424     184.873
  N     -221.629     222.993     182.625
  C     -221.543     222.003     181.703
  C     -221.623     220.643     181.897
  C     -221.831     220.167     183.247
  O     -222.009     219.001     183.586
  N     -221.511     219.965     180.707
  C     -221.330     220.912     179.807
  N     -221.335     222.166     180.363
  O     -220.169     222.210     173.644
  O     -217.862     223.223     173.224
  H     -220.704     225.872     180.470
  H     -220.344     222.866     172.943
  H     -222.003     220.925     185.121
  H     -221.199     220.743     178.747
  H     -222.089     224.050     180.064
  H     -219.364     223.968     180.731
  H     -221.624     223.140     185.823
  H     -218.769     222.668     178.788
  H     -221.665     224.397     184.640
  H     -220.452     224.621     177.124
  H     -219.822     221.666     176.782
  H     -220.906     222.627     175.741
  P     -216.745     224.522     178.983
  C     -217.127     226.742     180.274
  O     -216.951     225.335     180.352
  O     -215.806     225.486     178.112
  O     -216.138     223.167     179.125
  H     -215.166     224.952     177.606
  H     -217.251     227.141     181.259
  H     -217.995     226.961     179.688
  H     -216.267     227.184     179.816

 6  7  8  9  10  11  12  13  14  15  26  29  33  34 0
 6-311+G(2d,p)
 ****
 36  38  39  40  41 0
 6-311+G(2d,p)
 ****
 1  2  3  4  5  16  17  18  19  20  21  22  23  24  25 0
 3-21G
 ****
 27  28  30  31  32  35  37  42  43  44  45  46  47 0
 3-21G
 ****
 48  49 0
 3-21G
 ****


