%nproc=1
%NoSave
%Mem=1900MB
#P OB98/GEN NMR

erre ene a

0 1
  C      321.555     312.021     -37.047
  O      320.414     311.180     -36.854
  P      319.102     311.297     -37.790
  C      317.345     312.209     -36.152
  O      318.154     312.494     -37.283
  C      315.993     312.927     -36.168
  O      316.171     314.368     -36.052
  C      315.152     312.701     -37.435
  O      313.782     312.769     -37.017
  C      315.507     313.903     -38.288
  O      314.575     314.160     -39.328
  C      315.590     314.985     -37.222
  N      315.490     319.431     -39.781
  C      314.508     318.611     -39.362
  N      314.609     317.465     -38.658
  C      315.882     317.210     -38.338
  C      316.998     317.960     -38.674
  C      316.775     319.120     -39.443
  N      317.784     319.932     -39.908
  N      318.156     317.370     -38.192
  C      317.740     316.276     -37.588
  N      316.379     316.133     -37.639
  O      318.392     310.001     -37.995
  O      319.673     311.839     -39.185
  H      313.675     314.145     -38.930
  H      319.275     311.321     -39.913
  H      313.498     318.911     -39.649
  H      318.380     315.541     -37.111
  H      314.591     315.342     -36.948
  H      316.494     313.725     -38.761
  H      315.368     311.741     -37.928
  H      315.431     312.613     -35.279
  H      317.893     312.493     -35.237
  H      317.527     320.687     -40.527
  H      318.741     319.651     -39.779
  H      317.179     311.122     -36.105
  P      312.952     311.462     -36.597
  C      311.843     311.427     -38.908
  O      312.600     310.683     -37.955
  O      311.788     311.722     -35.691
  O      314.036     310.504     -35.902
  H      313.586     309.839     -35.354
  H      310.791     311.483     -38.589
  H      311.906     310.920     -39.889
  H      312.244     312.431     -39.017
  H      322.304     311.777     -36.323
  H      321.267     313.045     -36.931
  H      321.947     311.870     -38.031

 3  4  5  6  7  8  9  10  11  12  22  25  29  30  31  32 0
 6-311+G(2d,p)
 ****
 33  36  37 0
 6-311+G(2d,p)
 ****
 1  2  13  14  15  16  17  18  19  20  21  23  24  26 0
 3-21G
 ****
 27  28  34  35  38  39  40  41  42  43  44  45  46  47  48 0
 3-21G
 ****


