%nproc=1
%NoSave
%Mem=1900MB
#P OB98/GEN NMR

erre ene a

0 1
  C        6.158     239.871    -809.772
  O        6.301     238.714    -808.975
  H        7.029     239.971    -810.419
  H        6.105     240.753    -809.122
  H        5.259     239.810    -810.389
  P        4.993     238.156    -808.243
  C        6.542     237.317    -806.331
  O        5.485     237.000    -807.237
  C        7.411     236.082    -806.100
  O        6.578     234.998    -805.619
  C        8.157     235.585    -807.346
  O        9.445     235.103    -806.956
  C        7.320     234.397    -807.778
  O        8.063     233.469    -808.573
  C        6.885     233.845    -806.419
  N        5.147     229.379    -804.914
  C        6.225     230.120    -804.478
  N        7.010     229.554    -803.531
  N        6.525     231.303    -804.937
  C        5.648     231.754    -805.865
  C        4.541     231.128    -806.386
  C        4.240     229.806    -805.891
  O        3.298     229.105    -806.252
  N        3.953     231.905    -807.357
  C        4.720     232.984    -807.439
  N        5.755     232.947    -806.553
  O        4.262     237.336    -809.412
  O        4.098     239.188    -807.645
  H        7.441     232.790    -808.907
  H        3.592     237.903    -809.845
  H        4.973     228.454    -804.555
  H        4.560     233.804    -808.123
  H        7.693     233.279    -805.919
  H        6.459     234.736    -808.354
  H        6.832     228.645    -803.122
  H        8.256     236.343    -808.136
  H        7.790     230.094    -803.172
  H        8.138     236.314    -805.297
  H        6.115     237.647    -805.379
  H        7.138     238.140    -806.748
  P       10.690     236.126    -807.057
  C       12.568     234.754    -808.242
  O       12.056     235.270    -807.025
  O       10.672     236.854    -805.625
  O       10.587     237.109    -808.171
  H       10.956     237.773    -805.728
  H       13.472     234.215    -808.049
  H       12.771     235.561    -808.914
  H       11.848     234.096    -808.682

 6  7  8  9  10  11  12  13  14  15  26  29  33  34 0
 6-311+G(2d,p)
 ****
 36  38  39  40  41 0
 6-311+G(2d,p)
 ****
 1  2  3  4  5  16  17  18  19  20  21  22  23  24  25 0
 3-21G
 ****
 27  28  30  31  32  35  37  42  43  44  45  46  47 0
 3-21G
 ****
 48  49 0
 3-21G
 ****


