%nproc=1
%NoSave
%Mem=1900MB
#P OB98/GEN NMR

erre ene a

0 1
  C      -29.991     554.040     425.157
  O      -29.378     554.920     426.073
  P      -29.913     555.173     427.557
  C      -32.130     556.560     427.435
  O      -30.715     556.566     427.576
  C      -32.663     557.985     427.203
  O      -34.097     557.906     426.957
  C      -32.460     558.871     428.448
  O      -32.035     560.197     428.154
  C      -33.779     558.707     429.198
  O      -34.037     559.739     430.133
  C      -34.787     558.583     428.047
  N      -39.776     558.164     427.201
  C      -38.834     558.880     426.488
  N      -39.308     559.730     425.554
  N      -37.542     558.793     426.708
  C      -37.227     557.992     427.757
  C      -38.072     557.229     428.526
  C      -39.495     557.311     428.256
  O      -40.374     556.773     428.928
  N      -37.401     556.587     429.546
  C      -36.156     556.989     429.401
  N      -36.000     557.863     428.350
  O      -28.962     554.895     428.672
  O      -31.114     554.095     427.659
  H      -33.459     559.593     430.901
  H      -31.144     553.779     428.591
  H      -40.763     558.335     427.044
  H      -35.328     556.692     430.053
  H      -35.091     559.561     427.681
  H      -33.723     557.768     429.770
  H      -40.297     559.928     425.467
  H      -31.648     558.474     429.070
  H      -38.666     560.442     425.199
  H      -32.196     558.412     426.311
  H      -32.531     556.147     428.361
  H      -32.432     555.896     426.611
  P      -30.614     560.866     428.422
  C      -31.345     561.058     430.879
  O      -30.686     561.693     429.795
  O      -30.484     562.018     427.319
  O      -29.445     559.928     428.320
  H      -29.575     562.056     426.977
  H      -31.572     561.814     431.641
  H      -30.696     560.299     431.315
  H      -32.288     560.601     430.545
  H      -29.446     554.047     424.236
  H      -30.997     554.356     424.978
  H      -29.995     553.050     425.562

 3  4  5  6  7  8  9  10  11  12  23  26  30  31 0
 6-311+G(2d,p)
 ****
 33  35  36  37  38 0
 6-311+G(2d,p)
 ****
 1  2  13  14  15  16  17  18  19  20  21  22  24  25 0
 3-21G
 ****
 27  28  29  32  34  39  40  41  42  43  44  45  46  47  48  49 0
 3-21G
 ****


