%nproc=1
%NoSave
%Mem=1900MB
#P OB98/GEN NMR

erre ene a

0 1
  C      149.654      -2.240    -114.277
  O      148.793      -1.154    -114.547
  H      149.247      -3.138    -114.752
  H      149.712      -2.412    -113.200
  H      150.656      -2.058    -114.678
  P      149.286       0.332    -114.200
  C      147.345       0.631    -112.528
  O      148.751       0.659    -112.723
  C      146.883       1.858    -111.736
  O      147.506       1.817    -110.414
  C      147.270       3.206    -112.382
  O      146.242       4.148    -112.049
  C      148.560       3.522    -111.648
  O      148.951       4.857    -111.827
  C      148.170       3.085    -110.234
  N      149.305       2.967    -109.325
  C      149.454       3.954    -108.355
  O      148.677       4.896    -108.211
  N      150.553       3.831    -107.546
  C      151.493       2.845    -107.614
  O      152.447       2.771    -106.848
  C      151.298       1.847    -108.679
  C      150.229       1.951    -109.473
  O      148.984       1.372    -115.226
  O      150.864       0.163    -113.979
  H      151.337       0.414    -114.795
  H      149.766       5.048    -111.314
  H      150.676       4.538    -106.837
  H      152.039       1.065    -108.773
  H      150.053       1.235    -110.270
  H      147.436       3.775    -109.803
  H      149.376       2.901    -112.032
  H      147.373       3.143    -113.469
  H      145.799       1.791    -111.578
  H      147.092      -0.282    -111.979
  H      146.846       0.609    -113.504
  P      145.509       5.074    -113.137
  C      147.167       7.043    -112.961
  O      146.584       6.061    -113.808
  O      144.305       5.784    -112.605
  O      145.097       4.088    -114.330
  H      144.242       4.375    -114.704
  H      147.861       7.632    -113.523
  H      147.680       6.560    -112.155
  H      146.399       7.675    -112.567

 6  7  8  9  10  11  12  13  14  15  16  27  31  32  33  34  35 0
 6-311+G(2d,p)
 ****
 36  37 0
 6-311+G(2d,p)
 ****
 1  2  3  4  5  17  18  19  20  21  22  23  24  25 0
 3-21G
 ****
 26  28  29  30  38  39  40  41  42  43  44  45 0
 3-21G
 ****


