%nproc=1
%NoSave
%Mem=1900MB
#P OB98/GEN NMR

erre ene a

0 1
  C      330.322    -641.625      45.092
  O      331.494    -641.100      44.451
  P      332.801    -642.033      44.323
  C      334.006    -641.378      46.557
  O      334.001    -641.343      45.139
  C      335.302    -640.782      47.107
  O      336.447    -641.547      46.648
  C      335.581    -639.358      46.652
  O      334.789    -638.408      47.364
  C      337.071    -639.228      46.938
  O      337.306    -638.911      48.327
  C      337.576    -640.653      46.616
  N      338.268    -640.718      45.331
  C      339.575    -640.223      45.306
  O      340.113    -639.688      46.275
  N      340.226    -640.324      44.100
  C      339.694    -640.800      42.935
  O      340.328    -640.851      41.887
  C      338.282    -641.242      43.008
  C      337.660    -641.176      44.182
  O      333.244    -641.765      42.797
  O      332.592    -643.484      44.569
  H      338.251    -639.049      48.494
  H      333.718    -642.551      42.458
  H      341.181    -639.999      44.071
  H      337.827    -641.603      42.105
  H      336.616    -641.493      44.250
  H      338.265    -640.997      47.403
  H      337.549    -638.443      46.343
  H      335.412    -639.273      45.570
  H      335.272    -640.837      48.207
  H      333.916    -642.421      46.889
  H      333.136    -640.821      46.930
  P      333.427    -637.939      46.655
  C      334.715    -636.586      44.815
  O      333.796    -636.579      45.901
  O      332.563    -637.485      47.926
  O      332.790    -639.003      45.825
  H      333.121    -637.105      48.634
  H      334.645    -637.512      44.245
  H      335.731    -636.458      45.210
  H      334.481    -635.742      44.160
  H      329.552    -640.882      45.092
  H      330.558    -641.895      46.100
  H      329.982    -642.490      44.561

 3  4  5  6  7  8  9  10  11  12  13  23  28  29  30  31  32 0
 6-311+G(2d,p)
 ****
 33  34 0
 6-311+G(2d,p)
 ****
 1  2  14  15  16  17  18  19  20  21  22  24  25  26 0
 3-21G
 ****
 27  35  36  37  38  39  40  41  42  43  44  45 0
 3-21G
 ****


