%nproc=1
%NoSave
%Mem=1900MB
#P OB98/GEN NMR

erre ene a

0 1
  C      150.627     404.768     260.054
  O      151.866     405.253     260.549
  P      151.817     406.213     261.842
  C      151.941     408.544     260.695
  O      152.618     407.551     261.459
  C      152.889     409.206     259.688
  O      152.101     409.968     258.729
  C      153.901     410.182     260.325
  O      155.106     410.076     259.556
  C      153.219     411.531     260.109
  O      154.091     412.643     260.246
  C      152.632     411.316     258.727
  N      151.374     415.304     255.771
  C      152.481     414.520     255.803
  N      152.743     413.456     256.616
  C      151.708     413.240     257.449
  C      150.519     413.970     257.547
  C      150.371     415.044     256.648
  N      149.248     415.852     256.625
  N      149.716     413.453     258.537
  C      150.392     412.446     259.037
  N      151.582     412.263     258.405
  O      152.806     405.477     262.872
  O      150.454     406.420     262.431
  H      154.475     412.650     261.139
  H      152.475     405.526     263.781
  H      153.251     414.768     255.078
  H      150.072     411.823     259.864
  H      153.396     411.363     257.932
  H      152.425     411.656     260.859
  H      154.126     409.966     261.376
  H      153.415     408.427     259.137
  H      151.556     409.316     261.367
  H      149.326     416.705     256.095
  H      148.613     415.776     257.413
  H      151.081     408.091     260.184
  P      156.428     409.516     260.259
  C      156.794     411.583     261.753
  O      157.275     410.838     260.641
  O      157.244     408.967     258.992
  O      156.217     408.496     261.349
  H      157.304     409.639     258.291
  H      157.502     412.383     261.949
  H      156.710     410.942     262.630
  H      155.822     412.027     261.507
  H      150.802     404.147     259.200
  H      150.007     405.594     259.773
  H      150.138     404.197     260.815

 3  4  5  6  7  8  9  10  11  12  22  25  29  30  31  32 0
 6-311+G(2d,p)
 ****
 33  36  37 0
 6-311+G(2d,p)
 ****
 1  2  13  14  15  16  17  18  19  20  21  23  24  26 0
 3-21G
 ****
 27  28  34  35  38  39  40  41  42  43  44  45  46  47  48 0
 3-21G
 ****


