%nproc=1
%NoSave
%Mem=1900MB
#P OB98/GEN NMR

erre ene a

0 1
  C     -178.644     -14.956     475.439
  O     -178.839     -15.740     474.275
  P     -180.034     -16.803     474.177
  C     -178.255     -18.651     474.355
  O     -179.468     -18.128     474.884
  C     -177.360     -19.139     475.490
  O     -177.343     -18.130     476.529
  C     -177.802     -20.425     476.188
  O     -177.396     -21.619     475.539
  C     -177.068     -20.299     477.515
  O     -175.687     -20.670     477.344
  C     -177.179     -18.797     477.804
  N     -178.808     -18.554     482.650
  C     -177.612     -18.878     482.112
  N     -177.261     -18.938     480.809
  C     -178.289     -18.573     480.028
  C     -179.568     -18.217     480.430
  C     -179.813     -18.210     481.813
  N     -181.031     -17.858     482.359
  N     -180.360     -17.925     479.332
  C     -179.569     -18.098     478.296
  N     -178.306     -18.482     478.663
  O     -180.592     -16.984     472.810
  O     -181.117     -16.271     475.224
  H     -175.678     -21.610     477.074
  H     -181.985     -16.694     475.053
  H     -176.825     -19.127     482.825
  H     -179.866     -17.962     477.271
  H     -176.272     -18.389     478.273
  H     -177.479     -20.945     478.294
  H     -178.886     -20.422     476.375
  H     -176.335     -19.241     475.102
  H     -177.740     -17.848     473.814
  H     -181.079     -17.757     483.360
  H     -181.724     -17.448     481.748
  H     -178.473     -19.457     473.650
  P     -178.552     -22.663     475.126
  C     -177.446     -24.532     476.585
  O     -178.589     -23.752     476.299
  O     -178.429     -23.206     473.744
  O     -179.896     -21.817     475.366
  H     -180.084     -21.599     476.292
  H     -177.621     -25.089     477.511
  H     -176.567     -23.900     476.725
  H     -177.267     -25.246     475.778
  H     -177.799     -14.315     475.300
  H     -178.470     -15.598     476.277
  H     -179.516     -14.362     475.619

 3  4  5  6  7  8  9  10  11  12  22  25  29  30  31  32 0
 6-311+G(2d,p)
 ****
 33  36  37 0
 6-311+G(2d,p)
 ****
 1  2  13  14  15  16  17  18  19  20  21  23  24  26 0
 3-21G
 ****
 27  28  34  35  38  39  40  41  42  43  44  45  46  47  48 0
 3-21G
 ****


