%nproc=1
%NoSave
%Mem=1900MB
#P OB98/GEN NMR

erre ene a

0 1
  C     -310.019    -234.230    -126.821
  O     -310.103    -235.642    -126.803
  H     -309.087    -233.927    -126.337
  H     -310.859    -233.796    -126.270
  H     -310.021    -233.865    -127.850
  P     -311.441    -236.281    -127.417
  C     -310.635    -235.240    -129.650
  O     -311.732    -235.491    -128.784
  C     -311.056    -235.405    -131.107
  O     -310.002    -234.982    -131.996
  C     -311.415    -236.833    -131.500
  O     -312.755    -237.136    -131.150
  C     -311.196    -236.790    -133.006
  O     -312.323    -236.185    -133.676
  C     -309.951    -235.898    -133.123
  N     -307.119    -239.242    -135.629
  C     -308.403    -238.801    -135.875
  N     -309.042    -239.351    -136.932
  N     -309.016    -237.906    -135.145
  C     -308.282    -237.486    -134.089
  C     -307.002    -237.848    -133.735
  C     -306.315    -238.799    -134.585
  O     -305.151    -239.167    -134.467
  N     -306.591    -237.186    -132.607
  C     -307.633    -236.454    -132.259
  N     -308.686    -236.605    -133.126
  O     -312.592    -235.755    -126.435
  O     -311.455    -237.768    -127.513
  H     -312.192    -236.244    -134.637
  H     -313.251    -236.464    -126.316
  H     -306.687    -239.910    -136.241
  H     -307.671    -235.795    -131.404
  H     -309.970    -235.289    -134.036
  H     -311.089    -237.790    -133.426
  H     -308.747    -240.227    -137.339
  H     -310.717    -237.552    -131.053
  H     -310.008    -239.079    -137.065
  H     -311.908    -234.735    -131.281
  H     -309.833    -235.950    -129.421
  H     -310.271    -234.222    -129.483
  P     -313.331    -238.581    -131.532
  C     -312.142    -239.676    -129.499
  O     -312.349    -239.685    -130.905
  O     -313.046    -238.673    -133.104
  O     -314.781    -238.772    -131.240
  H     -313.876    -238.556    -133.600
  H     -311.469    -240.464    -129.233
  H     -313.077    -239.822    -129.000
  H     -311.724    -238.736    -129.206

 6  7  8  9  10  11  12  13  14  15  26  29  33  34 0
 6-311+G(2d,p)
 ****
 36  38  39  40  41 0
 6-311+G(2d,p)
 ****
 1  2  3  4  5  16  17  18  19  20  21  22  23  24  25 0
 3-21G
 ****
 27  28  30  31  32  35  37  42  43  44  45  46  47 0
 3-21G
 ****
 48  49 0
 3-21G
 ****


