%nproc=1
%NoSave
%Mem=1900MB
#P OB98/GEN NMR

erre ene a

0 1
  C      274.995     691.526     734.279
  O      273.973     691.113     735.163
  H      274.773     692.540     733.944
  H      275.025     690.864     733.405
  H      275.967     691.518     734.777
  P      274.132     689.715     735.933
  C      273.044     688.576     737.977
  O      273.085     689.734     737.145
  C      271.881     688.678     738.961
  O      271.995     689.900     739.739
  C      270.518     688.758     738.289
  O      270.106     687.473     737.810
  C      269.674     689.311     739.437
  O      269.276     688.275     740.340
  C      270.660     690.292     740.098
  N      270.385     691.683     739.727
  C      269.553     692.396     740.564
  O      269.049     691.927     741.588
  N      269.247     693.675     740.164
  C      269.575     694.228     738.965
  O      269.087     695.260     738.537
  C      270.518     693.453     738.136
  C      270.865     692.224     738.542
  O      275.531     689.334     736.300
  O      273.487     688.650     734.923
  H      274.201     688.175     734.455
  H      270.101     687.910     740.702
  H      268.604     694.184     740.748
  H      270.868     693.892     737.195
  H      271.536     691.616     737.938
  H      270.602     690.204     741.201
  H      268.768     689.789     739.044
  H      270.538     689.474     737.470
  H      271.947     687.823     739.664
  H      273.995     688.511     738.535
  H      272.957     687.682     737.348
  P      269.085     687.367     736.588
  C      268.588     685.731     734.654
  O      269.303     685.940     735.872
  O      269.090     688.549     735.657
  O      267.653     687.193     737.270
  H      267.032     687.835     736.894
  H      268.810     684.756     734.273
  H      268.881     686.469     733.937
  H      267.537     685.811     734.839

 6  7  8  9  10  11  12  13  14  15  16  27  31  32  33  34  35 0
 6-311+G(2d,p)
 ****
 36  37 0
 6-311+G(2d,p)
 ****
 1  2  3  4  5  17  18  19  20  21  22  23  24  25 0
 3-21G
 ****
 26  28  29  30  38  39  40  41  42  43  44  45 0
 3-21G
 ****


