%nproc=1
%NoSave
%Mem=1900MB
#P OB98/GEN NMR

erre ene a

0 1
  C      911.039     682.853     -21.488
  O      911.081     684.039     -20.683
  P      910.840     683.919     -19.105
  C      909.557     686.122     -18.687
  O      910.776     685.409     -18.496
  C      909.646     687.519     -18.082
  O      909.696     687.474     -16.645
  C      910.911     688.273     -18.491
  O      910.791     688.730     -19.842
  C      910.974     689.359     -17.450
  O      910.095     690.475     -17.789
  C      910.431     688.646     -16.203
  N      911.472     688.281     -15.247
  C      911.791     689.258     -14.283
  O      911.215     690.360     -14.295
  N      912.747     688.971     -13.331
  C      913.337     687.811     -13.354
  N      914.275     687.579     -12.400
  C      913.032     686.770     -14.353
  C      912.103     687.074     -15.269
  O      911.744     682.972     -18.384
  O      909.304     683.446     -19.009
  H      910.364     690.773     -18.683
  H      909.196     682.908     -18.200
  H      913.555     685.806     -14.327
  H      911.832     686.359     -16.036
  H      909.697     689.282     -15.665
  H      911.970     689.781     -17.332
  H      911.790     687.616     -18.395
  H      908.762     688.081     -18.378
  H      914.458     688.319     -11.724
  H      908.737     685.576     -18.228
  H      914.754     686.692     -12.293
  H      909.346     686.161     -19.768
  P      911.777     688.064     -20.930
  C      912.769     689.920     -22.434
  O      911.736     688.982     -22.257
  O      910.962     686.747     -21.377
  O      913.146     687.712     -20.421
  H      911.590     686.028     -21.575
  H      912.784     690.220     -23.484
  H      913.750     689.511     -22.177
  H      912.576     690.803     -21.819
  H      911.219     683.110     -22.511
  H      910.076     682.396     -21.399
  H      911.791     682.169     -21.154

 3  4  5  6  7  8  9  10  11  12  13  23  27  28  29  30  32 0
 6-311+G(2d,p)
 ****
 34  35 0
 6-311+G(2d,p)
 ****
 1  2  14  15  16  17  18  19  20  21  22  24  25  26 0
 3-21G
 ****
 31  33  36  37  38  39  40  41  42  43  44  45  46 0
 3-21G
 ****


