%nproc=1
%NoSave
%Mem=1900MB
#P OB98/GEN NMR

erre ene a

0 1
  C     -892.960    -116.265    1598.030
  O     -893.090    -116.411    1596.633
  H     -893.250    -115.251    1598.308
  H     -891.920    -116.419    1598.326
  H     -893.600    -116.979    1598.555
  P     -892.780    -117.866    1596.030
  C     -895.140    -118.923    1596.239
  O     -893.810    -118.877    1596.738
  C     -896.120    -118.322    1597.240
  O     -895.760    -116.915    1597.464
  C     -897.590    -118.353    1596.803
  O     -898.400    -118.566    1597.969
  C     -897.830    -116.946    1596.298
  O     -899.200    -116.590    1596.298
  C     -896.980    -116.153    1597.296
  N     -898.300    -111.329    1597.855
  C     -898.730    -112.458    1598.515
  N     -899.660    -112.275    1599.478
  N     -898.290    -113.669    1598.263
  C     -897.330    -113.686    1597.298
  C     -896.820    -112.652    1596.570
  C     -897.340    -111.320    1596.837
  O     -897.000    -110.288    1596.278
  N     -895.890    -113.087    1595.659
  C     -895.840    -114.396    1595.841
  N     -896.700    -114.808    1596.829
  O     -891.370    -118.238    1596.690
  O     -892.730    -117.947    1594.541
  H     -899.280    -115.621    1596.109
  H     -890.640    -117.983    1596.101
  H     -898.670    -110.425    1598.083
  H     -895.210    -115.078    1595.304
  H     -897.470    -116.059    1598.275
  H     -897.450    -116.833    1595.275
  H     -900.000    -111.392    1599.766
  H     -897.820    -119.123    1596.054
  H     -899.960    -113.094    1600.009
  H     -895.980    -118.831    1598.211
  H     -895.420    -119.968    1596.056
  H     -895.190    -118.372    1595.282
  P     -898.470    -120.036    1598.581
  C     -897.370    -120.328    1600.930
  O     -897.190    -120.247    1599.524
  O     -898.140    -120.960    1597.321
  O     -899.790    -120.379    1599.204
  H     -898.580    -121.834    1597.424
  H     -896.421    -120.468    1601.404
  H     -898.009    -121.154    1601.161
  H     -897.816    -119.422    1601.285

 6  7  8  9  10  11  12  13  14  15  26  29  33  34 0
 6-311+G(2d,p)
 ****
 36  38  39  40  41 0
 6-311+G(2d,p)
 ****
 1  2  3  4  5  16  17  18  19  20  21  22  23  24  25 0
 3-21G
 ****
 27  28  30  31  32  35  37  42  43  44  45  46  47 0
 3-21G
 ****
 48  49 0
 3-21G
 ****


