%nproc=1
%NoSave
%Mem=1900MB
#P OB98/GEN NMR

erre ene a

0 1
  C     -605.582      17.693     475.239
  O     -606.570      18.561     474.712
  P     -607.727      19.159     475.652
  C     -609.210      19.245     473.536
  O     -609.105      18.829     474.887
  C     -610.676      19.483     473.170
  O     -611.412      18.258     473.331
  C     -611.376      20.506     474.048
  O     -611.016      21.827     473.695
  C     -612.841      20.142     473.797
  O     -613.289      20.699     472.563
  C     -612.767      18.600     473.703
  N     -613.158      17.925     474.933
  C     -614.466      18.176     475.390
  O     -615.227      18.908     474.760
  N     -614.894      17.551     476.538
  C     -614.082      16.756     477.185
  N     -614.584      16.107     478.267
  C     -612.689      16.517     476.771
  C     -612.303      17.122     475.645
  O     -607.544      20.599     476.031
  O     -607.788      18.170     476.909
  H     -614.097      20.228     472.311
  H     -607.164      18.423     477.632
  H     -612.052      15.870     477.352
  H     -611.296      16.975     475.261
  H     -613.409      18.244     472.875
  H     -613.526      20.495     474.590
  H     -611.136      20.334     475.106
  H     -610.731      19.787     472.120
  H     -615.583      16.162     478.410
  H     -608.803      18.461     472.886
  H     -614.130      15.283     478.645
  H     -608.614      20.161     473.383
  P     -610.250      22.702     474.803
  C     -610.652      24.863     473.408
  O     -610.827      24.199     474.655
  O     -608.755      22.801     474.205
  O     -610.273      22.134     476.185
  H     -608.163      22.178     474.683
  H     -611.302      25.753     473.397
  H     -610.932      24.215     472.580
  H     -609.615      25.198     473.310
  H     -604.907      17.406     474.460
  H     -606.052      16.821     475.643
  H     -605.041      18.197     476.012

 3  4  5  6  7  8  9  10  11  12  13  23  27  28  29  30  32 0
 6-311+G(2d,p)
 ****
 34  35 0
 6-311+G(2d,p)
 ****
 1  2  14  15  16  17  18  19  20  21  22  24  25  26 0
 3-21G
 ****
 31  33  36  37  38  39  40  41  42  43  44  45  46 0
 3-21G
 ****


