%nproc=1
%NoSave
%Mem=1900MB
#P OB98/GEN NMR

erre ene a

0 1
  C      115.628    -401.783     343.558
  O      116.088    -403.116     343.408
  P      116.113    -404.100     344.679
  C      116.041    -406.353     343.434
  O      116.827    -405.461     344.230
  C      116.884    -406.948     342.309
  O      117.394    -405.896     341.450
  C      118.111    -407.720     342.782
  O      117.739    -408.993     343.286
  C      118.952    -407.742     341.523
  O      118.517    -408.795     340.638
  C      118.641    -406.360     340.898
  N      122.727    -404.045     338.907
  C      121.989    -405.091     338.473
  N      120.937    -405.677     339.090
  C      120.687    -405.083     340.261
  C      121.370    -404.030     340.844
  C      122.444    -403.501     340.096
  N      123.162    -402.376     340.495
  N      120.843    -403.728     342.088
  C      119.850    -404.591     342.249
  N      119.676    -405.388     341.150
  O      114.800    -404.267     345.378
  O      117.202    -403.427     345.647
  H      118.505    -409.630     341.156
  H      116.771    -403.187     346.493
  H      122.277    -405.518     337.501
  H      119.228    -404.658     343.127
  H      118.501    -406.426     339.818
  H      120.017    -407.911     341.723
  H      118.638    -407.141     343.558
  H      116.228    -407.591     341.697
  H      115.190    -405.803     343.025
  H      123.787    -401.990     339.813
  H      122.765    -401.772     341.222
  H      115.642    -407.148     344.081
  P      118.875    -410.020     343.749
  C      117.655    -410.902     345.836
  O      118.130    -411.214     344.528
  O      120.039    -409.428     344.464
  O      119.336    -410.732     342.386
  H      120.276    -410.963     342.442
  H      118.500    -410.930     346.538
  H      116.918    -411.669     346.128
  H      117.182    -409.927     345.867
  H      115.682    -401.279     342.616
  H      116.241    -401.272     344.271
  H      114.614    -401.792     343.901

 3  4  5  6  7  8  9  10  11  12  22  25  29  30  31  32 0
 6-311+G(2d,p)
 ****
 33  36  37 0
 6-311+G(2d,p)
 ****
 1  2  13  14  15  16  17  18  19  20  21  23  24  26 0
 3-21G
 ****
 27  28  34  35  38  39  40  41  42  43  44  45  46  47  48 0
 3-21G
 ****


