%nproc=1
%NoSave
%Mem=1900MB
#P OB98/GEN NMR

erre ene a

0 1
  C      203.684    -126.461     194.126
  O      204.615    -125.440     193.834
  H      203.074    -126.147     194.978
  H      204.209    -127.381     194.395
  H      203.024    -126.645     193.273
  P      205.512    -125.565     192.513
  C      207.510    -124.279     191.497
  O      206.658    -124.450     192.622
  C      208.097    -122.860     191.474
  O      207.020    -121.918     191.170
  C      208.730    -122.413     192.810
  O      209.787    -121.494     192.486
  C      207.556    -121.700     193.459
  O      207.933    -120.956     194.586
  C      207.020    -120.940     192.241
  N      205.690    -120.360     192.397
  C      205.591    -119.171     193.115
  O      206.538    -118.568     193.619
  N      204.320    -118.665     193.248
  C      203.178    -119.212     192.734
  O      202.072    -118.695     192.862
  C      203.352    -120.469     191.996
  C      204.580    -120.974     191.864
  O      204.768    -125.580     191.219
  O      206.326    -126.930     192.738
  H      205.917    -127.644     192.213
  H      207.130    -120.735     195.109
  H      204.227    -117.802     193.759
  H      202.463    -120.940     191.585
  H      204.738    -121.899     191.311
  H      207.724    -120.154     191.953
  H      206.825    -122.435     193.812
  H      209.136    -123.246     193.394
  H      208.823    -122.794     190.650
  H      206.915    -124.446     190.592
  H      208.313    -125.015     191.540
  P      211.308    -121.702     192.945
  C      213.667    -121.311     191.953
  O      212.262    -121.170     191.769
  O      211.629    -123.094     193.393
  O      211.544    -120.649     194.131
  H      212.246    -120.973     194.720
  H      214.180    -120.918     191.100
  H      213.909    -122.347     192.069
  H      213.968    -120.774     192.828

 6  7  8  9  10  11  12  13  14  15  16  27  31  32  33  34  35 0
 6-311+G(2d,p)
 ****
 36  37 0
 6-311+G(2d,p)
 ****
 1  2  3  4  5  17  18  19  20  21  22  23  24  25 0
 3-21G
 ****
 26  28  29  30  38  39  40  41  42  43  44  45 0
 3-21G
 ****


