%nproc=1
%NoSave
%Mem=1900MB
#P OB98/GEN NMR

erre ene a

0 1
  C       29.245     -67.858      -4.659
  O       30.564     -67.480      -4.323
  H       28.545     -67.215      -4.117
  H       29.075     -68.893      -4.353
  H       29.067     -67.751      -5.732
  P       31.744     -68.001      -5.277
  C       32.304     -70.244      -6.459
  O       31.461     -69.563      -5.542
  C       31.881     -71.709      -6.587
  O       32.402     -72.447      -5.437
  C       30.359     -71.921      -6.626
  O       30.061     -73.002      -7.518
  C       30.046     -72.379      -5.211
  O       28.835     -73.125      -5.137
  C       31.296     -73.193      -4.894
  N       29.147     -75.488      -0.979
  C       28.896     -75.597      -2.331
  N       27.873     -76.394      -2.703
  N       29.587     -74.969      -3.248
  C       30.597     -74.220      -2.741
  C       30.947     -74.023      -1.428
  C       30.161     -74.709      -0.419
  O       30.323     -74.635       0.794
  N       31.990     -73.138      -1.324
  C       32.257     -72.784      -2.571
  N       31.436     -73.413      -3.466
  O       33.009     -68.008      -4.294
  O       31.989     -67.180      -6.498
  H       28.126     -72.603      -5.567
  H       33.509     -67.174      -4.392
  H       28.575     -75.976      -0.314
  H       33.008     -72.071      -2.872
  H       31.284     -74.183      -5.370
  H       29.961     -71.511      -4.546
  H       27.314     -76.933      -2.060
  H       29.790     -71.030      -6.920
  H       27.700     -76.517      -3.696
  H       32.354     -72.134      -7.481
  H       33.338     -70.203      -6.097
  H       32.255     -69.747      -7.434
  P       29.532     -72.640      -8.990
  C       27.464     -71.397      -9.970
  O       28.022     -72.112      -8.878
  O       29.367     -74.077      -9.677
  O       30.460     -71.763      -9.770
  H       29.578     -74.017     -10.627
  H       26.458     -71.118      -9.737
  H       27.469     -72.017     -10.842
  H       28.045     -70.517     -10.154

 6  7  8  9  10  11  12  13  14  15  26  29  33  34 0
 6-311+G(2d,p)
 ****
 36  38  39  40  41 0
 6-311+G(2d,p)
 ****
 1  2  3  4  5  16  17  18  19  20  21  22  23  24  25 0
 3-21G
 ****
 27  28  30  31  32  35  37  42  43  44  45  46  47 0
 3-21G
 ****
 48  49 0
 3-21G
 ****


