%nproc=1
%NoSave
%Mem=1900MB
#P OB98/GEN NMR

erre ene a

0 1
  C      642.847     708.145     483.621
  O      643.573     707.026     483.148
  H      643.305     708.496     484.547
  H      641.808     707.867     483.828
  H      642.876     708.957     482.886
  P      643.064     706.279     481.825
  C      643.404     707.151     479.422
  O      644.028     706.741     480.632
  C      644.362     706.980     478.240
  O      645.393     707.994     478.358
  C      645.043     705.598     478.229
  O      644.908     704.917     476.987
  C      646.460     705.903     478.719
  O      647.444     704.990     478.284
  C      646.681     707.348     478.258
  N      647.678     708.076     479.040
  C      648.940     708.246     478.470
  O      649.265     707.861     477.348
  N      649.848     708.919     479.245
  C      649.638     709.403     480.497
  O      650.499     709.998     481.139
  C      648.307     709.171     481.055
  C      647.392     708.519     480.319
  O      641.600     706.403     481.533
  O      643.482     704.755     482.060
  H      647.468     705.020     477.303
  H      642.703     704.232     482.328
  H      650.760     709.064     478.832
  H      648.105     709.531     482.060
  H      646.392     708.330     480.700
  H      646.993     707.379     477.219
  H      646.455     705.875     479.811
  H      644.559     704.920     478.945
  H      643.820     707.168     477.310
  H      643.120     708.206     479.531
  H      642.495     706.554     479.253
  P      643.885     703.718     476.719
  C      641.516     703.432     477.808
  O      642.405     704.240     477.059
  O      644.273     702.402     477.283
  O      643.881     703.585     475.108
  H      643.734     702.637     474.909
  H      640.585     703.946     477.932
  H      641.942     703.229     478.768
  H      641.349     702.511     477.290

 6  7  8  9  10  11  12  13  14  15  16  26  31  32  33  34  35 0
 6-311+G(2d,p)
 ****
 36  37 0
 6-311+G(2d,p)
 ****
 1  2  3  4  5  17  18  19  20  21  22  23  24  25 0
 3-21G
 ****
 27  28  29  30  38  39  40  41  42  43  44  45 0
 3-21G
 ****


