%nproc=1
%NoSave
%Mem=1900MB
#P OB98/GEN NMR

erre ene a

0 1
  C       29.557      92.096      44.135
  O       30.376      93.184      44.524
  H       29.085      92.335      43.178
  H       28.775      91.935      44.884
  H       30.155      91.187      44.019
  P       31.336      92.938      45.783
  C       29.559      93.982      47.409
  O       30.400      92.880      47.093
  C       28.480      93.551      48.398
  O       27.703      92.459      47.866
  C       29.018      93.003      49.710
  O       29.551      94.010      50.542
  C       27.765      92.348      50.278
  O       26.939      93.293      50.968
  C       27.059      91.831      49.000
  N       27.083      90.382      48.920
  C       25.830      89.769      48.774
  O       24.809      90.456      48.703
  N       25.768      88.400      48.752
  C       26.853      87.702      48.891
  N       26.717      86.347      48.893
  C       28.191      88.308      49.049
  C       28.233      89.641      49.055
  O       32.080      94.346      45.930
  O       32.255      91.770      45.651
  H       26.070      92.858      51.092
  H       31.480      95.110      45.917
  H       29.067      87.682      49.147
  H       29.174      90.169      49.166
  H       26.010      92.158      48.983
  H       28.013      91.559      50.993
  H       29.758      92.214      49.516
  H       27.810      94.406      48.567
  H       25.777      85.975      48.839
  H       29.101      94.389      46.500
  H       27.477      85.707      49.072
  H       30.186      94.766      47.845
  P       30.792      93.718      51.513
  C       29.352      91.982      52.761
  O       30.585      92.231      52.094
  O       31.045      94.754      52.557
  O       32.010      93.508      50.494
  H       31.892      92.780      49.859
  H       29.329      90.968      53.101
  H       28.540      92.150      52.084
  H       29.260      92.641      53.599

 6  7  8  9  10  11  12  13  14  15  16  26  30  31  32  33  35 0
 6-311+G(2d,p)
 ****
 37  38 0
 6-311+G(2d,p)
 ****
 1  2  3  4  5  17  18  19  20  21  22  23  24  25 0
 3-21G
 ****
 27  28  29  34  36  39  40  41  42  43  44  45  46 0
 3-21G
 ****


