%nproc=1
%NoSave
%Mem=1900MB
#P OB98/GEN NMR

erre ene a

0 1
  C       -2.709     -12.097    -148.866
  O       -1.986     -13.247    -148.460
  P       -1.900     -13.554    -146.885
  C        0.679     -13.435    -146.379
  O       -0.588     -12.795    -146.363
  C        1.395     -13.220    -145.042
  O        1.649     -11.810    -144.845
  C        0.603     -13.658    -143.818
  O        0.632     -15.071    -143.651
  C        1.304     -12.877    -142.715
  O        2.518     -13.536    -142.325
  C        1.628     -11.546    -143.427
  N        0.693     -10.471    -143.105
  C        0.735      -9.991    -141.800
  O        1.508     -10.423    -140.945
  N       -0.166      -8.997    -141.500
  C       -1.121      -8.498    -142.335
  O       -1.927      -7.642    -142.001
  C       -1.139      -9.069    -143.692
  C       -0.249     -10.012    -144.008
  O       -1.492     -15.104    -146.912
  O       -3.164     -13.240    -146.156
  H       -1.010     -15.339    -147.724
  H        3.043     -12.879    -141.824
  H       -0.137      -8.614    -140.564
  H       -1.889      -8.704    -144.382
  H       -0.254     -10.454    -144.997
  H        2.641     -11.212    -143.164
  H        0.686     -12.764    -141.815
  H       -0.435     -13.322    -143.905
  H        2.363     -13.737    -145.081
  H        1.282     -13.019    -147.188
  H        0.540     -14.504    -146.566
  P       -0.691     -15.744    -143.034
  C        0.474     -15.712    -140.693
  O       -0.672     -15.426    -141.464
  O       -0.318     -17.300    -143.129
  O       -1.948     -15.370    -143.749
  H        0.603     -17.482    -142.868
  H        0.439     -15.117    -139.779
  H        1.393     -15.469    -141.235
  H        0.480     -16.771    -140.428
  H       -2.683     -12.018    -149.933
  H       -2.265     -11.225    -148.433
  H       -3.724     -12.180    -148.539

 3  4  5  6  7  8  9  10  11  12  13  24  28  29  30  31  32 0
 6-311+G(2d,p)
 ****
 33  34 0
 6-311+G(2d,p)
 ****
 1  2  14  15  16  17  18  19  20  21  22  23  25  26  27 0
 3-21G
 ****
 35  36  37  38  39  40  41  42  43  44  45 0
 3-21G
 ****


