%nproc=1
%NoSave
%Mem=1900MB
#P OB98/GEN NMR

erre ene a

0 1
  C     -462.323    -202.952     -26.334
  O     -462.003    -203.940     -27.298
  P     -460.924    -203.549     -28.421
  C     -458.983    -204.670     -27.091
  O     -459.496    -203.485     -27.693
  C     -457.922    -205.298     -27.988
  O     -457.008    -204.288     -28.467
  C     -457.052    -206.344     -27.306
  O     -457.753    -207.569     -27.144
  C     -455.874    -206.404     -28.270
  O     -456.218    -207.203     -29.415
  C     -455.721    -204.930     -28.681
  N     -451.513    -202.024     -28.942
  C     -452.274    -202.598     -29.899
  N     -453.365    -203.374     -29.752
  C     -453.661    -203.539     -28.450
  C     -452.965    -203.037     -27.364
  C     -451.842    -202.243     -27.649
  N     -451.065    -201.665     -26.667
  N     -453.549    -203.436     -26.183
  C     -454.586    -204.155     -26.548
  N     -454.705    -204.236     -27.907
  O     -461.251    -202.015     -28.724
  O     -460.973    -204.390     -29.658
  H     -456.313    -208.127     -29.104
  H     -461.093    -201.803     -29.663
  H     -451.965    -202.403     -30.926
  H     -455.282    -204.633     -25.868
  H     -455.471    -204.812     -29.743
  H     -454.974    -206.839     -27.823
  H     -456.714    -205.979     -26.326
  H     -458.431    -205.735     -28.857
  H     -459.796    -205.388     -26.948
  H     -450.195    -201.239     -26.950
  H     -451.225    -201.942     -25.705
  H     -458.567    -204.415     -26.109
  P     -457.607    -208.319     -25.731
  C     -460.043    -207.800     -25.087
  O     -458.674    -207.572     -24.791
  O     -456.213    -207.746     -25.203
  O     -457.722    -209.803     -25.793
  H     -456.162    -206.775     -25.277
  H     -460.652    -207.279     -24.346
  H     -460.261    -208.870     -25.049
  H     -460.280    -207.404     -26.082
  H     -463.049    -203.342     -25.651
  H     -462.723    -202.090     -26.826
  H     -461.439    -202.678     -25.797

 3  4  5  6  7  8  9  10  11  12  22  25  29  30  31  32 0
 6-311+G(2d,p)
 ****
 33  36  37 0
 6-311+G(2d,p)
 ****
 1  2  13  14  15  16  17  18  19  20  21  23  24  26 0
 3-21G
 ****
 27  28  34  35  38  39  40  41  42  43  44  45  46  47  48 0
 3-21G
 ****


