%nproc=1
%NoSave
%Mem=1900MB
#P OB98/GEN NMR

erre ene a

0 1
  C      503.097    -136.826    -465.425
  O      504.162    -136.929    -464.497
  H      502.826    -135.764    -465.521
  H      502.222    -137.382    -465.076
  H      503.406    -137.194    -466.406
  P      504.703    -138.395    -464.126
  C      503.182    -138.826    -462.085
  O      503.487    -139.176    -463.427
  C      502.359    -139.928    -461.414
  O      503.087    -141.173    -461.571
  C      502.120    -139.688    -459.923
  O      500.747    -139.741    -459.538
  C      503.084    -140.667    -459.254
  O      502.707    -141.069    -457.953
  C      503.183    -141.804    -460.281
  N      504.410    -142.585    -460.180
  C      504.284    -143.930    -459.856
  O      503.224    -144.525    -459.673
  N      505.467    -144.633    -459.747
  C      506.713    -144.121    -459.926
  O      507.722    -144.801    -459.819
  C      506.782    -142.681    -460.243
  C      505.638    -141.984    -460.351
  O      505.990    -138.421    -463.363
  O      504.848    -139.136    -465.534
  H      501.831    -141.476    -458.003
  H      505.784    -139.144    -465.803
  H      505.377    -145.611    -459.515
  H      507.758    -142.241    -460.382
  H      505.659    -140.935    -460.595
  H      502.338    -142.477    -460.159
  H      504.069    -140.179    -459.162
  H      502.430    -138.653    -459.643
  H      501.397    -140.035    -461.962
  H      502.619    -137.889    -462.099
  H      504.113    -138.672    -461.525
  P      499.796    -138.466    -459.416
  C      500.535    -137.687    -457.013
  O      500.485    -137.432    -458.414
  O      498.346    -138.767    -459.182
  O      499.933    -137.756    -460.861
  H      499.050    -137.328    -461.043
  H      501.035    -136.879    -456.521
  H      501.068    -138.597    -456.835
  H      499.540    -137.776    -456.631

 6  7  8  9  10  11  12  13  14  15  16  26  31  32  33  34  35 0
 6-311+G(2d,p)
 ****
 36  37 0
 6-311+G(2d,p)
 ****
 1  2  3  4  5  17  18  19  20  21  22  23  24  25 0
 3-21G
 ****
 27  28  29  30  38  39  40  41  42  43  44  45 0
 3-21G
 ****


