%nproc=1
%NoSave
%Mem=1900MB
#P OB98/GEN NMR

erre ene a

0 1
  C      -91.700     562.603    -440.269
  O      -91.101     563.311    -439.202
  H      -91.347     563.023    -441.213
  H      -92.788     562.706    -440.221
  H      -91.426     561.544    -440.227
  P      -91.351     562.744    -437.726
  C      -89.241     561.218    -437.392
  O      -89.909     562.435    -437.085
  C      -87.893     561.168    -436.675
  O      -87.039     562.253    -437.094
  C      -87.988     561.346    -435.167
  O      -88.546     560.226    -434.520
  C      -86.528     561.596    -434.826
  O      -85.787     560.367    -434.791
  C      -86.080     562.471    -436.024
  N      -85.972     563.879    -435.675
  C      -84.933     564.211    -434.795
  O      -84.173     563.339    -434.374
  N      -84.804     565.519    -434.394
  C      -85.619     566.416    -434.848
  N      -85.441     567.691    -434.407
  C      -86.710     566.117    -435.799
  C      -86.830     564.840    -436.159
  O      -91.934     561.283    -438.006
  O      -92.211     563.597    -436.852
  H      -84.849     560.616    -434.681
  H      -91.373     560.744    -438.587
  H      -87.358     566.899    -436.157
  H      -87.603     564.532    -436.849
  H      -85.103     562.137    -436.401
  H      -86.410     562.064    -433.849
  H      -88.550     562.259    -434.930
  H      -87.402     560.223    -436.936
  H      -84.697     567.856    -433.740
  H      -89.109     561.105    -438.470
  H      -86.035     568.465    -434.664
  H      -89.880     560.396    -437.049
  P      -88.889     560.274    -432.954
  C      -91.351     560.667    -433.594
  O      -90.443     559.892    -432.820
  O      -88.501     561.537    -432.260
  O      -88.168     558.966    -432.379
  H      -88.475     558.127    -432.767
  H      -92.350     560.322    -433.423
  H      -91.111     560.566    -434.632
  H      -91.275     561.696    -433.309

 6  7  8  9  10  11  12  13  14  15  16  26  30  31  32  33  35 0
 6-311+G(2d,p)
 ****
 37  38 0
 6-311+G(2d,p)
 ****
 1  2  3  4  5  17  18  19  20  21  22  23  24  25 0
 3-21G
 ****
 27  28  29  34  36  39  40  41  42  43  44  45  46 0
 3-21G
 ****


