%nproc=1
%NoSave
%Mem=1900MB
#P OB98/GEN NMR

erre ene a

0 1
  C       16.312     335.955    -386.505
  O       16.774     337.187    -385.982
  H       15.220     335.974    -386.521
  H       16.636     335.131    -385.864
  H       16.676     335.803    -387.526
  P       18.350     337.483    -385.977
  C       18.784     337.161    -383.451
  O       18.987     336.647    -384.762
  C       19.736     336.498    -382.449
  O       21.104     336.817    -382.819
  C       19.524     336.943    -381.000
  O       19.726     335.834    -380.127
  C       20.620     337.976    -380.786
  O       20.991     338.093    -379.414
  C       21.737     337.432    -381.679
  N       26.605     338.723    -382.105
  C       26.029     337.521    -381.704
  N       26.870     336.532    -381.352
  N       24.736     337.324    -381.654
  C       24.014     338.400    -382.059
  C       24.462     339.636    -382.475
  C       25.894     339.847    -382.502
  O       26.458     340.885    -382.826
  N       23.419     340.465    -382.780
  C       22.336     339.741    -382.555
  N       22.645     338.483    -382.102
  O       18.715     338.933    -385.997
  O       18.898     336.720    -387.272
  H       20.171     338.265    -378.908
  H       19.103     337.348    -387.984
  H       27.608     338.824    -382.110
  H       21.316     340.076    -382.691
  H       22.346     336.666    -381.173
  H       20.280     338.958    -381.138
  H       27.885     336.613    -381.395
  H       18.529     337.369    -380.840
  H       26.481     335.644    -381.092
  H       19.631     335.411    -382.545
  H       17.746     336.965    -383.161
  H       18.943     338.248    -383.458
  P       18.497     335.302    -379.243
  C       18.801     335.954    -376.776
  O       18.246     336.331    -378.035
  O       18.563     333.868    -378.846
  O       17.226     335.578    -380.200
  H       16.570     334.865    -380.059
  H       18.576     336.705    -376.048
  H       19.862     335.854    -376.870
  H       18.381     335.020    -376.466

 6  7  8  9  10  11  12  13  14  15  26  29  33  34 0
 6-311+G(2d,p)
 ****
 36  38  39  40  41 0
 6-311+G(2d,p)
 ****
 1  2  3  4  5  16  17  18  19  20  21  22  23  24  25 0
 3-21G
 ****
 27  28  30  31  32  35  37  42  43  44  45  46  47 0
 3-21G
 ****
 48  49 0
 3-21G
 ****


