%nproc=1
%NoSave
%Mem=1900MB
#P OB98/GEN NMR

erre ene a

0 1
  C       45.579     -82.233    -144.354
  O       45.582     -80.885    -144.831
  P       44.256     -80.360    -145.570
  C       45.246     -79.987    -147.960
  O       44.763     -79.409    -146.760
  C       45.847     -78.917    -148.877
  O       44.795     -78.323    -149.696
  C       46.563     -77.779    -148.139
  O       47.701     -77.419    -148.936
  C       45.535     -76.663    -148.153
  O       46.133     -75.386    -147.979
  C       44.887     -76.893    -149.522
  N       43.580     -76.252    -149.644
  C       43.568     -74.880    -149.855
  O       44.591     -74.197    -149.862
  N       42.336     -74.308    -150.012
  C       41.135     -74.951    -149.901
  O       40.058     -74.390    -150.050
  C       41.208     -76.381    -149.564
  C       42.409     -76.955    -149.451
  O       43.664     -79.354    -144.480
  O       43.341     -81.466    -145.978
  H       44.348     -78.858    -143.998
  H       45.429     -74.721    -147.839
  H       42.306     -73.317    -150.197
  H       40.278     -76.912    -149.410
  H       42.497     -77.999    -149.183
  H       45.535     -76.510    -150.321
  H       44.806     -76.817    -147.351
  H       46.888     -78.062    -147.135
  H       46.547     -79.412    -149.562
  H       44.427     -80.484    -148.489
  H       45.984     -80.760    -147.717
  P       48.966     -78.414    -148.949
  C       50.178     -76.926    -147.169
  O       50.226     -77.581    -148.416
  O       49.236     -78.500    -150.528
  O       48.727     -79.750    -148.329
  H       49.235     -77.631    -150.963
  H       51.192     -76.628    -146.890
  H       49.785     -77.586    -146.391
  H       49.556     -76.031    -147.243
  H       46.517     -82.448    -143.887
  H       45.428     -82.902    -145.176
  H       44.789     -82.358    -143.643

 3  4  5  6  7  8  9  10  11  12  13  24  28  29  30  31  32 0
 6-311+G(2d,p)
 ****
 33  34 0
 6-311+G(2d,p)
 ****
 1  2  14  15  16  17  18  19  20  21  22  23  25  26  27 0
 3-21G
 ****
 35  36  37  38  39  40  41  42  43  44  45 0
 3-21G
 ****


