%nproc=1
%NoSave
%Mem=1900MB
#P OB98/GEN NMR

erre ene a

0 1
  C      179.089      27.960    -194.493
  O      178.403      28.055    -193.244
  P      178.728      29.126    -192.106
  C      177.675      29.667    -189.765
  O      177.924      28.710    -190.785
  C      176.592      29.218    -188.762
  O      175.318      29.100    -189.452
  C      176.921      27.829    -188.207
  O      177.814      27.692    -187.119
  C      175.560      27.177    -187.980
  O      175.090      27.345    -186.643
  C      174.648      27.917    -188.965
  N      172.239      23.665    -190.497
  C      172.517      24.100    -189.216
  N      172.149      23.276    -188.208
  N      173.115      25.229    -188.944
  C      173.502      25.914    -190.041
  C      173.306      25.579    -191.365
  C      172.592      24.352    -191.653
  O      172.312      23.928    -192.770
  N      173.861      26.511    -192.208
  C      174.415      27.391    -191.400
  N      174.219      27.077    -190.073
  O      178.653      30.555    -192.524
  O      180.266      28.806    -191.728
  H      174.250      26.857    -186.554
  H      180.676      29.661    -191.478
  H      171.754      22.800    -190.646
  H      174.960      28.272    -191.720
  H      173.730      28.264    -188.466
  H      175.618      26.099    -188.159
  H      171.796      22.342    -188.349
  H      177.380      27.259    -189.023
  H      172.541      23.484    -187.285
  H      176.444      29.971    -187.986
  H      177.373      30.592    -190.263
  H      178.600      29.893    -189.229
  P      179.272      27.031    -187.171
  C      181.051      26.354    -185.455
  O      179.675      26.596    -185.685
  O      180.252      28.266    -187.454
  O      179.448      25.967    -188.209
  H      181.123      27.950    -187.761
  H      181.165      25.784    -184.526
  H      181.578      27.310    -185.347
  H      181.494      25.785    -186.278
  H      178.674      27.159    -195.068
  H      180.127      27.771    -194.316
  H      178.980      28.879    -195.031

 3  4  5  6  7  8  9  10  11  12  23  26  30  31 0
 6-311+G(2d,p)
 ****
 33  35  36  37  38 0
 6-311+G(2d,p)
 ****
 1  2  13  14  15  16  17  18  19  20  21  22  24  25 0
 3-21G
 ****
 27  28  29  32  34  39  40  41  42  43  44  45  46  47  48  49 0
 3-21G
 ****


