%nproc=1
%NoSave
%Mem=1900MB
#P OB98/GEN NMR

erre ene a

0 1
  C     -209.483     383.137     442.774
  O     -208.949     382.027     443.468
  H     -210.322     383.561     443.330
  H     -208.702     383.901     442.676
  H     -209.808     382.834     441.775
  P     -209.944     380.805     443.755
  C     -208.616     378.805     442.771
  O     -209.697     379.713     442.594
  C     -207.605     378.962     441.637
  O     -207.049     380.299     441.704
  C     -206.439     377.960     441.661
  O     -206.398     377.209     440.445
  C     -205.192     378.818     441.734
  O     -204.124     378.347     440.929
  C     -205.683     380.188     441.272
  N     -200.929     381.976     441.727
  C     -201.494     381.153     440.820
  N     -202.789     380.796     440.687
  C     -203.542     381.421     441.613
  C     -203.114     382.311     442.592
  C     -201.742     382.570     442.640
  N     -201.160     383.372     443.599
  N     -204.190     382.737     443.363
  C     -205.232     382.080     442.896
  N     -204.884     381.260     441.845
  O     -211.386     381.413     443.393
  O     -209.908     380.264     445.146
  H     -203.436     379.034     440.943
  H     -212.019     381.207     444.106
  H     -200.805     380.704     440.100
  H     -206.237     382.121     443.290
  H     -205.659     380.292     440.187
  H     -204.850     378.853     442.782
  H     -206.497     377.268     442.517
  H     -208.150     378.889     440.680
  H     -209.000     377.775     442.762
  H     -200.153     383.412     443.634
  H     -201.740     383.731     444.352
  H     -208.143     378.992     443.740
  P     -207.543     376.099     440.229
  C     -208.717     376.992     438.085
  O     -208.780     376.817     439.487
  O     -208.091     375.868     441.720
  O     -207.052     374.836     439.612
  H     -208.457     374.965     441.805
  H     -209.607     377.480     437.746
  H     -208.631     376.037     437.610
  H     -207.866     377.591     437.838

 6  7  8  9  10  11  12  13  14  15  25  28  32  33  34  35 0
 6-311+G(2d,p)
 ****
 36  39  40 0
 6-311+G(2d,p)
 ****
 1  2  3  4  5  16  17  18  19  20  21  22  23  24 0
 3-21G
 ****
 26  27  29  30  31  37  38  41  42  43  44  45  46  47  48 0
 3-21G
 ****


