%nproc=1
%NoSave
%Mem=1900MB
#P OB98/GEN NMR

erre ene a

0 1
  C      759.354     321.422    -244.008
  O      759.965     321.202    -245.272
  P      760.066     322.379    -246.363
  C      757.932     321.377    -247.395
  O      758.573     322.549    -246.924
  C      756.427     321.622    -247.575
  O      755.849     321.855    -246.266
  C      756.051     322.861    -248.400
  O      756.044     322.644    -249.802
  C      754.623     323.093    -247.905
  O      753.732     322.172    -248.559
  C      754.739     322.775    -246.413
  N      752.500     326.648    -243.927
  C      751.991     325.600    -244.623
  N      752.662     324.630    -245.278
  C      753.984     324.769    -245.117
  C      754.648     325.765    -244.440
  C      753.838     326.756    -243.815
  N      754.374     327.805    -243.085
  N      756.015     325.605    -244.515
  C      756.171     324.487    -245.221
  N      754.974     323.950    -245.601
  O      761.120     322.173    -247.392
  O      760.292     323.706    -245.491
  H      753.793     321.329    -248.091
  H      760.624     324.418    -246.062
  H      750.902     325.549    -244.686
  H      757.120     324.060    -245.471
  H      753.849     322.265    -246.029
  H      754.266     324.113    -248.145
  H      756.673     323.726    -248.132
  H      755.971     320.719    -247.991
  H      758.078     320.575    -246.656
  H      753.703     328.376    -242.577
  H      755.344     327.792    -242.864
  H      758.389     321.060    -248.335
  P      756.608     323.832    -250.734
  C      754.358     325.137    -251.101
  O      755.630     325.080    -250.481
  O      756.796     323.464    -252.162
  O      757.954     324.261    -249.986
  H      757.839     324.672    -249.106
  H      753.796     325.979    -250.688
  H      753.806     324.213    -250.939
  H      754.496     325.320    -252.185
  H      759.389     320.520    -243.433
  H      758.335     321.715    -244.151
  H      759.878     322.197    -243.488

 3  4  5  6  7  8  9  10  11  12  22  25  29  30  31  32 0
 6-311+G(2d,p)
 ****
 33  36  37 0
 6-311+G(2d,p)
 ****
 1  2  13  14  15  16  17  18  19  20  21  23  24  26 0
 3-21G
 ****
 27  28  34  35  38  39  40  41  42  43  44  45  46  47  48 0
 3-21G
 ****


