%nproc=1
%NoSave
%Mem=1900MB
#P OB98/GEN NMR

erre ene a

0 1
  C      -83.916    -624.403    -478.233
  O      -84.908    -623.399    -478.162
  H      -83.951    -625.005    -477.318
  H      -82.923    -623.953    -478.316
  H      -84.100    -625.054    -479.091
  P      -84.940    -622.341    -479.371
  C      -87.389    -621.536    -478.950
  O      -86.002    -621.237    -478.873
  C      -88.178    -620.508    -478.147
  O      -87.875    -620.614    -476.742
  C      -87.880    -619.060    -478.518
  O      -88.538    -618.647    -479.709
  C      -88.419    -618.336    -477.294
  O      -89.860    -618.297    -477.359
  C      -87.944    -619.279    -476.165
  N      -86.647    -618.893    -475.617
  C      -86.606    -617.700    -474.867
  O      -87.624    -617.030    -474.705
  N      -85.403    -617.287    -474.345
  C      -84.333    -618.001    -474.539
  N      -83.161    -617.526    -474.014
  C      -84.336    -619.260    -475.301
  C      -85.502    -619.647    -475.805
  O      -85.753    -623.108    -480.521
  O      -83.621    -621.799    -479.805
  H      -90.164    -617.679    -476.667
  H      -85.939    -622.489    -481.267
  H      -83.404    -619.815    -475.443
  H      -85.579    -620.560    -476.371
  H      -88.672    -619.312    -475.348
  H      -88.076    -617.313    -477.215
  H      -86.800    -618.875    -478.585
  H      -89.252    -620.730    -478.264
  H      -83.193    -616.631    -473.551
  H      -87.550    -622.540    -478.544
  H      -82.254    -617.915    -474.259
  H      -87.726    -621.518    -479.992
  P      -87.745    -617.646    -480.688
  C      -88.071    -619.099    -482.819
  O      -88.336    -617.865    -482.163
  O      -86.279    -618.306    -480.778
  O      -87.687    -616.220    -480.227
  H      -85.586    -617.631    -480.784
  H      -88.528    -619.094    -483.787
  H      -88.472    -619.904    -482.240
  H      -87.014    -619.227    -482.924

 6  7  8  9  10  11  12  13  14  15  16  26  30  31  32  33  35 0
 6-311+G(2d,p)
 ****
 37  38 0
 6-311+G(2d,p)
 ****
 1  2  3  4  5  17  18  19  20  21  22  23  24  25 0
 3-21G
 ****
 27  28  29  34  36  39  40  41  42  43  44  45  46 0
 3-21G
 ****


