%nproc=1
%NoSave
%Mem=1900MB
#P OB98/GEN NMR

erre ene a

0 1
  C      200.278     330.646    -163.547
  O      199.544     329.573    -162.945
  P      200.177     328.101    -162.926
  C      200.883     326.273    -164.614
  O      200.244     327.531    -164.421
  C      200.312     325.580    -165.856
  O      198.892     325.325    -165.723
  C      200.442     326.427    -167.115
  O      201.744     326.628    -167.627
  C      199.421     325.787    -168.042
  O      199.956     324.639    -168.701
  C      198.314     325.369    -167.046
  N      197.151     326.259    -167.084
  C      196.327     326.134    -168.200
  O      196.557     325.366    -169.127
  N      195.230     326.963    -168.226
  C      194.913     327.897    -167.286
  O      193.932     328.628    -167.370
  C      195.840     328.001    -166.144
  C      196.895     327.189    -166.097
  O      199.603     327.167    -161.914
  O      201.726     328.389    -162.597
  H      200.633     324.953    -169.330
  H      202.027     327.704    -161.971
  H      194.617     326.879    -169.019
  H      195.620     328.737    -165.384
  H      197.592     327.245    -165.263
  H      197.961     324.353    -167.266
  H      199.092     326.475    -168.820
  H      200.061     327.437    -166.882
  H      200.811     324.614    -165.975
  H      200.731     325.645    -163.731
  H      201.961     326.432    -164.703
  P      202.315     328.068    -168.038
  C      201.788     329.868    -169.831
  O      201.416     328.643    -169.238
  O      203.791     328.211    -168.160
  O      201.818     328.971    -166.805
  H      202.477     329.668    -166.652
  H      201.062     330.110    -170.614
  H      202.780     329.787    -170.283
  H      201.777     330.670    -169.087
  H      199.712     331.551    -163.472
  H      200.457     330.422    -164.578
  H      201.213     330.767    -163.041

 3  4  5  6  7  8  9  10  11  12  13  23  28  29  30  31  32 0
 6-311+G(2d,p)
 ****
 33  34 0
 6-311+G(2d,p)
 ****
 1  2  14  15  16  17  18  19  20  21  22  24  25  26  27 0
 3-21G
 ****
 35  36  37  38  39  40  41  42  43  44  45 0
 3-21G
 ****


