%nproc=1
%NoSave
%Mem=1900MB
#P OB98/GEN NMR

erre ene a

0 1
  C      115.962     -98.400      88.739
  O      116.429     -98.295      90.068
  H      116.775     -98.781      88.115
  H      115.671     -97.415      88.367
  H      115.118     -99.091      88.676
  P      115.396     -97.893      91.224
  C      115.989     -95.429      91.706
  O      116.108     -96.777      92.134
  C      117.102     -94.567      92.310
  O      116.672     -94.101      93.615
  C      118.427     -95.313      92.492
  O      119.508     -94.422      92.218
  C      118.424     -95.680      93.963
  O      119.742     -95.842      94.483
  C      117.663     -94.508      94.578
  N      118.140     -94.375      99.606
  C      118.933     -93.821      98.622
  N      120.027     -93.146      99.034
  N      118.679     -93.922      97.343
  C      117.539     -94.607      97.077
  C      116.671     -95.202      97.961
  C      116.977     -95.100      99.372
  O      116.320     -95.583     100.289
  N      115.637     -95.820      97.303
  C      115.882     -95.599      96.026
  N      117.031     -94.878      95.835
  O      114.822     -99.045      91.987
  O      114.256     -97.068      90.466
  H      119.678     -95.746      95.458
  H      113.446     -97.600      90.366
  H      118.388     -94.277     100.575
  H      115.268     -95.941      95.203
  H      118.314     -93.652      94.790
  H      117.881     -96.623      94.109
  H      120.271     -93.009     100.002
  H      118.501     -96.188      91.848
  H      120.610     -92.704      98.333
  H      117.235     -93.679      91.681
  H      115.014     -95.050      92.030
  H      116.036     -95.391      90.611
  P      119.974     -94.208      90.697
  C      122.429     -94.343      91.444
  O      121.466     -93.616      90.692
  O      119.005     -93.480      89.827
  O      120.192     -95.711      90.179
  H      119.941     -95.758      89.235
  H      123.380     -93.859      91.368
  H      122.504     -95.339      91.060
  H      122.128     -94.378      92.470

 6  7  8  9  10  11  12  13  14  15  26  29  33  34 0
 6-311+G(2d,p)
 ****
 36  38  39  40  41 0
 6-311+G(2d,p)
 ****
 1  2  3  4  5  16  17  18  19  20  21  22  23  24  25 0
 3-21G
 ****
 27  28  30  31  32  35  37  42  43  44  45  46  47 0
 3-21G
 ****
 48  49 0
 3-21G
 ****


