%nproc=1
%NoSave
%Mem=1900MB
#P OB98/GEN NMR

erre ene a

0 1
  C     -171.260    -345.102     539.029
  O     -171.713    -346.423     538.827
  P     -173.193    -346.781     538.343
  C     -172.493    -346.237     535.900
  O     -173.452    -346.041     536.936
  C     -173.121    -346.717     534.580
  O     -173.725    -348.010     534.785
  C     -174.253    -345.768     534.165
  O     -173.963    -344.575     533.459
  C     -175.296    -346.666     533.504
  O     -175.208    -346.656     532.076
  C     -174.964    -348.058     534.052
  N     -179.410    -350.479     534.288
  C     -178.546    -350.360     533.218
  N     -179.018    -350.772     532.024
  N     -177.339    -349.854     533.315
  C     -177.048    -349.396     534.558
  C     -177.818    -349.478     535.702
  C     -179.127    -350.071     535.585
  O     -179.964    -350.126     536.489
  N     -177.229    -348.840     536.760
  C     -176.122    -348.339     536.257
  N     -175.984    -348.612     534.917
  O     -174.269    -346.738     539.382
  O     -173.018    -348.318     537.891
  H     -175.988    -347.121     531.728
  H     -173.858    -348.780     538.096
  H     -180.356    -350.809     534.133
  H     -175.400    -347.746     536.811
  H     -174.819    -348.770     533.235
  H     -176.311    -346.322     533.756
  H     -179.984    -351.023     531.881
  H     -174.728    -345.421     535.088
  H     -178.480    -350.539     531.195
  H     -172.363    -346.855     533.807
  H     -171.757    -346.960     536.265
  H     -171.958    -345.298     535.721
  P     -174.868    -343.260     533.408
  C     -173.891    -342.512     535.655
  O     -175.073    -342.733     534.904
  O     -176.326    -343.795     533.009
  O     -174.411    -342.221     532.433
  H     -176.844    -343.070     532.617
  H     -174.152    -342.452     536.711
  H     -173.438    -341.559     535.348
  H     -173.179    -343.326     535.501
  H     -170.240    -345.120     539.351
  H     -171.862    -344.629     539.777
  H     -171.335    -344.555     538.112

 3  4  5  6  7  8  9  10  11  12  23  26  30  31 0
 6-311+G(2d,p)
 ****
 33  35  36  37  38 0
 6-311+G(2d,p)
 ****
 1  2  13  14  15  16  17  18  19  20  21  22  24  25 0
 3-21G
 ****
 27  28  29  32  34  39  40  41  42  43  44  45  46  47  48  49 0
 3-21G
 ****


