%nproc=1
%NoSave
%Mem=1900MB
#P OB98/GEN NMR

erre ene a

0 1
  C      216.668       3.694      47.589
  O      215.766       3.675      48.674
  H      216.376       2.916      46.879
  H      217.677       3.480      47.949
  H      216.658       4.659      47.077
  P      215.669       4.963      49.615
  C      213.953       5.707      47.837
  O      214.912       6.123      48.801
  C      212.618       6.431      48.020
  O      212.051       6.086      49.301
  C      212.769       7.955      47.999
  O      212.722       8.532      46.706
  C      211.577       8.400      48.842
  O      210.400       8.568      48.035
  C      211.390       7.244      49.831
  N      210.818       9.918      54.151
  C      210.149      10.059      52.949
  N      209.247      11.062      52.888
  N      210.368       9.296      51.910
  C      211.368       8.404      52.090
  C      212.114       8.186      53.227
  C      211.815       8.984      54.396
  O      212.366       8.887      55.487
  N      213.072       7.222      53.025
  C      212.960       6.925      51.745
  N      211.889       7.557      51.158
  O      217.178       5.505      49.663
  O      215.156       4.712      51.001
  H      210.252       7.739      47.541
  H      217.346       5.931      50.523
  H      210.587      10.515      54.924
  H      213.593       6.229      51.208
  H      210.330       6.983      49.943
  H      211.775       9.365      49.315
  H      209.102      11.730      53.627
  H      213.684       8.259      48.514
  H      208.874      11.319      51.973
  H      211.913       6.087      47.254
  H      213.818       4.634      47.975
  H      214.337       5.864      46.826
  P      213.151      10.053      46.471
  C      215.757      10.020      46.162
  O      214.644      10.244      46.998
  O      212.274      10.846      47.548
  O      212.941      10.573      45.086
  H      211.481      11.232      47.131
  H      216.657      10.204      46.710
  H      215.710      10.680      45.321
  H      215.748       9.006      45.820

 6  7  8  9  10  11  12  13  14  15  26  29  33  34 0
 6-311+G(2d,p)
 ****
 36  38  39  40  41 0
 6-311+G(2d,p)
 ****
 1  2  3  4  5  16  17  18  19  20  21  22  23  24  25 0
 3-21G
 ****
 27  28  30  31  32  35  37  42  43  44  45  46  47 0
 3-21G
 ****
 48  49 0
 3-21G
 ****


