%nproc=1
%NoSave
%Mem=1900MB
#P OB98/GEN NMR

erre ene a

0 1
  C     -158.085      66.407    -150.496
  O     -156.779      66.905    -150.285
  H     -158.197      66.162    -151.557
  H     -158.830      67.162    -150.229
  H     -158.240      65.501    -149.905
  P     -156.420      67.361    -148.789
  C     -155.691      69.808    -149.147
  O     -155.263      68.462    -148.976
  C     -154.917      70.476    -150.286
  O     -155.516      70.076    -151.545
  C     -154.938      72.004    -150.222
  O     -153.669      72.510    -150.632
  C     -155.993      72.387    -151.246
  O     -155.794      73.699    -151.768
  C     -155.847      71.270    -152.278
  N     -157.742      69.843    -156.794
  C     -156.489      69.815    -156.291
  N     -156.072      70.202    -155.064
  C     -157.113      70.607    -154.316
  C     -158.442      70.696    -154.693
  C     -158.747      70.294    -156.007
  N     -160.016      70.344    -156.536
  N     -159.206      71.204    -153.660
  C     -158.354      71.406    -152.671
  N     -157.074      71.076    -153.028
  O     -156.105      66.260    -147.834
  O     -157.688      68.258    -148.409
  H     -156.523      73.894    -152.395
  H     -157.938      68.852    -149.142
  H     -155.718      69.439    -156.958
  H     -158.609      71.799    -151.694
  H     -155.048      71.468    -153.003
  H     -156.986      72.357    -150.781
  H     -155.184      72.378    -149.229
  H     -153.890      70.090    -150.286
  H     -155.538      70.373    -148.221
  H     -160.148      70.023    -157.482
  H     -160.781      70.661    -155.958
  H     -156.761      69.794    -149.373
  P     -153.037      73.736    -149.816
  C     -152.310      75.013    -151.940
  O     -151.892      74.415    -150.718
  O     -152.657      73.455    -148.402
  O     -154.207      74.833    -149.882
  H     -154.239      75.313    -149.031
  H     -151.461      75.426    -152.444
  H     -153.016      75.790    -151.734
  H     -152.767      74.272    -152.562

 6  7  8  9  10  11  12  13  14  15  25  28  32  33  34  35 0
 6-311+G(2d,p)
 ****
 36  39  40 0
 6-311+G(2d,p)
 ****
 1  2  3  4  5  16  17  18  19  20  21  22  23  24 0
 3-21G
 ****
 26  27  29  30  31  37  38  41  42  43  44  45  46  47 0
 3-21G
 ****
 48 0
 3-21G
 ****


