%nproc=1
%NoSave
%Mem=1900MB
#P OB98/GEN NMR

erre ene a

0 1
  C       78.205      -9.118     -84.843
  O       78.761     -10.400     -84.607
  P       78.158     -11.384     -83.489
  C       78.259     -11.456     -80.905
  O       78.584     -10.739     -82.083
  C       79.412     -11.382     -79.902
  O       80.571     -12.037     -80.481
  C       79.828      -9.956     -79.521
  O       80.230      -9.983     -78.147
  C       81.020      -9.698     -80.423
  O       81.866      -8.670     -79.931
  C       81.659     -11.092     -80.459
  N       82.537     -11.274     -81.610
  C       83.654     -10.444     -81.713
  O       83.874      -9.573     -80.873
  N       84.506     -10.620     -82.774
  C       84.222     -11.486     -83.696
  N       85.129     -11.663     -84.696
  C       82.997     -12.306     -83.682
  C       82.223     -12.165     -82.610
  O       78.525     -12.818     -83.653
  O       76.587     -11.102     -83.520
  H       81.449      -7.809     -80.127
  H       76.115     -11.631     -84.209
  H       82.790     -12.995     -84.489
  H       81.316     -12.743     -82.502
  H       82.218     -11.274     -79.535
  H       80.668      -9.399     -81.416
  H       79.017      -9.232     -79.646
  H       79.128     -11.949     -79.007
  H       86.029     -11.212     -84.578
  H       78.091     -12.503     -81.173
  H       85.140     -12.515     -85.244
  H       77.334     -11.058     -80.473
  P       79.999      -8.664     -77.260
  C       81.557      -6.644     -76.790
  O       81.047      -7.554     -77.741
  O       80.616      -9.114     -75.846
  O       78.584      -8.225     -77.079
  H       80.195      -8.593     -75.138
  H       82.257      -5.970     -77.291
  H       82.093      -7.175     -76.000
  H       80.749      -6.050     -76.357
  H       78.752      -8.630     -85.623
  H       78.262      -8.534     -83.948
  H       77.181      -9.222     -85.136

 3  4  5  6  7  8  9  10  11  12  13  23  27  28  29  30  32 0
 6-311+G(2d,p)
 ****
 34  35 0
 6-311+G(2d,p)
 ****
 1  2  14  15  16  17  18  19  20  21  22  24  25  26 0
 3-21G
 ****
 31  33  36  37  38  39  40  41  42  43  44  45  46 0
 3-21G
 ****


