%nproc=1
%NoSave
%Mem=1900MB
#P OB98/GEN NMR

erre ene a

0 1
  C     -204.312     264.264     -14.764
  O     -204.882     262.974     -15.006
  P     -206.298     262.654     -14.323
  C     -208.098     263.172     -16.156
  O     -207.265     262.211     -15.523
  C     -209.372     262.502     -16.669
  O     -210.204     263.459     -17.369
  C     -209.126     261.376     -17.660
  O     -208.651     260.208     -17.010
  C     -210.507     261.242     -18.290
  O     -211.372     260.473     -17.441
  C     -210.981     262.710     -18.334
  N     -210.893     263.301     -19.663
  C     -211.236     262.464     -20.722
  O     -211.572     261.292     -20.570
  N     -211.160     263.020     -21.970
  C     -210.755     264.291     -22.258
  O     -210.717     264.737     -23.396
  C     -210.357     265.110     -21.103
  C     -210.442     264.587     -19.877
  O     -206.793     264.123     -13.934
  O     -206.193     261.697     -13.184
  H     -206.526     264.798     -14.581
  H     -211.764     261.102     -16.804
  H     -211.417     262.435     -22.749
  H     -210.005     266.115     -21.296
  H     -210.151     265.176     -19.013
  H     -212.025     262.780     -18.001
  H     -210.476     260.744     -19.264
  H     -208.403     261.698     -18.418
  H     -209.932     262.128     -15.801
  H     -207.568     263.629     -16.998
  H     -208.329     263.966     -15.441
  P     -207.612     259.295     -17.829
  C     -205.760     261.081     -18.291
  O     -206.161     259.929     -17.584
  O     -207.965     259.701     -19.337
  O     -207.737     257.836     -17.537
  H     -208.078     260.658     -19.455
  H     -204.929     261.548     -17.757
  H     -206.575     261.804     -18.375
  H     -205.420     260.796     -19.290
  H     -203.375     264.342     -15.275
  H     -204.157     264.394     -13.713
  H     -204.978     265.021     -15.122

 3  4  5  6  7  8  9  10  11  12  13  24  28  29  30  31  32 0
 6-311+G(2d,p)
 ****
 33  34 0
 6-311+G(2d,p)
 ****
 1  2  14  15  16  17  18  19  20  21  22  23  25  26  27 0
 3-21G
 ****
 35  36  37  38  39  40  41  42  43  44  45 0
 3-21G
 ****


