%nproc=1
%NoSave
%Mem=1900MB
#P OB98/GEN NMR

erre ene a

0 1
  C     -891.436      28.382     541.518
  O     -891.396      27.816     542.816
  H     -891.466      27.577     540.783
  H     -890.526      28.976     541.347
  H     -892.316      29.016     541.385
  P     -891.636      28.765     544.085
  C     -894.036      29.340     543.328
  O     -893.216      28.786     544.348
  C     -895.446      28.760     543.372
  O     -895.426      27.391     542.860
  C     -896.046      28.700     544.790
  O     -897.476      28.852     544.656
  C     -895.716      27.284     545.211
  O     -896.506      26.863     546.314
  C     -895.936      26.537     543.893
  N     -895.296      25.215     543.888
  C     -896.126      24.114     543.698
  O     -897.356      24.217     543.570
  N     -895.516      22.887     543.698
  C     -894.206      22.662     543.926
  O     -893.716      21.544     543.951
  C     -893.366      23.851     544.169
  C     -893.946      25.064     544.131
  O     -890.996      30.110     544.009
  O     -891.086      27.910     545.323
  H     -896.436      27.510     547.033
  H     -890.746      28.506     546.015
  H     -896.116      22.083     543.553
  H     -892.326      23.699     544.360
  H     -893.366      25.961     544.315
  H     -897.016      26.396     543.711
  H     -894.666      27.215     545.514
  H     -895.646      29.461     545.460
  H     -896.106      29.333     542.691
  H     -893.576      29.113     542.356
  H     -894.076      30.428     543.442
  P     -898.266      30.086     545.321
  C     -899.116      31.129     543.126
  O     -899.476      30.508     544.351
  O     -897.386      31.234     545.732
  O     -898.996      29.458     546.604
  H     -899.126      30.146     547.281
  H     -900.000      31.362     542.571
  H     -898.501      30.464     542.556
  H     -898.574      32.030     543.328

 6  7  8  9  10  11  12  13  14  15  16  26  31  32  33  34  35 0
 6-311+G(2d,p)
 ****
 36  37 0
 6-311+G(2d,p)
 ****
 1  2  3  4  5  17  18  19  20  21  22  23  24  25 0
 3-21G
 ****
 27  28  29  30  38  39  40  41  42  43  44  45 0
 3-21G
 ****


