%nproc=1
%NoSave
%Mem=1900MB
#P OB98/GEN NMR

erre ene a

0 1
  C      711.433    -670.633     -18.878
  O      711.002    -669.589     -19.739
  P      709.451    -669.168     -19.679
  C      707.221    -670.453     -20.051
  O      708.640    -670.474     -20.142
  C      706.586    -670.501     -21.450
  O      707.048    -671.670     -22.153
  C      705.071    -670.595     -21.436
  O      704.451    -669.327     -21.254
  C      704.818    -671.107     -22.858
  O      704.904    -670.032     -23.800
  C      705.982    -672.076     -23.050
  N      704.797    -676.605     -25.119
  C      705.016    -675.403     -25.668
  N      705.314    -674.242     -25.050
  C      705.334    -674.405     -23.706
  C      705.083    -675.578     -23.007
  C      704.824    -676.726     -23.768
  N      704.625    -677.972     -23.200
  N      705.205    -675.356     -21.646
  C      705.526    -674.082     -21.547
  N      705.633    -673.462     -22.757
  O      709.301    -668.177     -20.921
  O      709.005    -668.555     -18.402
  H      704.433    -669.270     -23.402
  H      708.526    -667.590     -20.784
  H      704.953    -675.363     -26.759
  H      705.688    -673.566     -20.606
  H      706.381    -672.060     -24.076
  H      703.825    -671.552     -22.961
  H      704.711    -671.336     -20.722
  H      706.920    -669.604     -21.988
  H      706.910    -669.532     -19.545
  H      704.614    -678.764     -23.819
  H      704.846    -678.077     -22.220
  H      706.887    -671.316     -19.453
  P      703.142    -669.294     -20.326
  C      701.130    -670.943     -20.099
  O      702.167    -670.400     -20.927
  O      702.450    -667.907     -20.733
  O      703.426    -669.381     -18.868
  H      701.903    -667.570     -20.005
  H      700.393    -671.426     -20.749
  H      700.636    -670.130     -19.538
  H      701.563    -671.659     -19.420
  H      712.479    -670.806     -19.023
  H      710.889    -671.527     -19.101
  H      711.256    -670.352     -17.861

 3  4  5  6  7  8  9  10  11  12  22  25  29  30  31  32 0
 6-311+G(2d,p)
 ****
 33  36  37 0
 6-311+G(2d,p)
 ****
 1  2  13  14  15  16  17  18  19  20  21  23  24  26 0
 3-21G
 ****
 27  28  34  35  38  39  40  41  42  43  44  45  46  47  48 0
 3-21G
 ****


