%nproc=1
%NoSave
%Mem=1900MB
#P OB98/GEN NMR

erre ene a

0 1
  C      228.280    -367.726     396.043
  O      229.175    -368.053     394.997
  P      228.768    -369.145     393.897
  C      229.221    -371.705     393.657
  O      229.123    -370.585     394.517
  C      229.956    -372.864     394.343
  O      231.323    -372.452     394.554
  C      229.410    -373.245     395.712
  O      229.880    -374.558     396.040
  C      230.086    -372.226     396.610
  O      230.113    -372.638     397.979
  C      231.476    -372.066     395.943
  N      231.965    -370.677     396.036
  C      232.420    -370.248     397.283
  O      232.491    -370.997     398.258
  N      232.706    -368.924     397.394
  C      232.529    -367.991     396.401
  O      232.491    -366.780     396.594
  C      232.275    -368.535     395.055
  C      231.983    -369.836     394.937
  O      229.877    -368.936     392.761
  O      227.387    -369.008     393.361
  H      230.730    -372.034     398.447
  H      229.518    -368.360     392.054
  H      232.894    -368.582     398.327
  H      232.286    -367.851     394.216
  H      231.752    -370.251     393.969
  H      232.228    -372.722     396.416
  H      229.538    -371.282     396.556
  H      228.316    -373.202     395.794
  H      229.959    -373.729     393.664
  H      229.730    -371.404     392.740
  H      228.223    -372.028     393.363
  P      228.819    -375.606     396.626
  C      227.420    -375.740     398.785
  O      228.163    -374.908     397.917
  O      229.321    -376.994     396.841
  O      227.627    -375.566     395.559
  H      227.073    -376.363     395.644
  H      227.478    -375.337     399.797
  H      227.818    -376.767     398.791
  H      226.376    -375.763     398.465
  H      228.724    -366.984     396.673
  H      228.069    -368.603     396.619
  H      227.371    -367.344     395.628

 3  4  5  6  7  8  9  10  11  12  13  23  28  29  30  31  32 0
 6-311+G(2d,p)
 ****
 33  34 0
 6-311+G(2d,p)
 ****
 1  2  14  15  16  17  18  19  20  21  22  24  25  26  27 0
 3-21G
 ****
 35  36  37  38  39  40  41  42  43  44  45 0
 3-21G
 ****


