%nproc=1
%NoSave
%Mem=1900MB
#P OB98/GEN NMR

erre ene a

0 1
  C      110.000      18.142    -188.451
  O      111.045      18.812    -189.119
  H      109.064      18.672    -188.654
  H      110.168      18.141    -187.372
  H      109.907      17.117    -188.818
  P      112.562      18.360    -188.841
  C      114.060      18.326    -186.758
  O      112.868      18.849    -187.335
  C      114.053      18.468    -185.235
  O      114.100      19.873    -184.877
  C      112.817      17.861    -184.561
  O      113.226      17.076    -183.438
  C      112.026      19.075    -184.098
  O      111.161      18.771    -183.008
  C      113.156      20.069    -183.808
  N      112.696      21.451    -183.737
  C      111.822      21.765    -182.692
  O      111.450      20.889    -181.909
  N      111.360      23.051    -182.578
  C      111.697      23.937    -183.463
  N      111.196      25.191    -183.301
  C      112.578      23.638    -184.610
  C      113.042      22.390    -184.681
  O      113.547      18.820    -189.862
  O      112.487      16.770    -188.694
  H      110.560      18.044    -183.283
  H      113.387      16.384    -188.838
  H      112.822      24.407    -185.327
  H      113.703      22.083    -185.484
  H      113.657      19.822    -182.861
  H      111.409      19.448    -184.927
  H      112.229      17.233    -185.225
  H      114.976      18.024    -184.846
  H      110.597      25.354    -182.500
  H      114.917      18.855    -187.187
  H      111.385      25.957    -183.930
  H      114.126      17.263    -187.016
  P      112.251      15.866    -183.031
  C      110.455      15.410    -181.220
  O      111.373      16.341    -181.773
  O      113.255      14.784    -182.412
  O      111.474      15.311    -184.178
  H      113.446      14.089    -183.069
  H      109.944      15.860    -180.395
  H      110.985      14.544    -180.882
  H      109.744      15.124    -181.967

 6  7  8  9  10  11  12  13  14  15  16  26  30  31  32  33  35 0
 6-311+G(2d,p)
 ****
 37  38 0
 6-311+G(2d,p)
 ****
 1  2  3  4  5  17  18  19  20  21  22  23  24  25 0
 3-21G
 ****
 27  28  29  34  36  39  40  41  42  43  44  45  46 0
 3-21G
 ****


