%nproc=1
%NoSave
%Mem=1900MB
#P OB98/GEN NMR

erre ene a

0 1
  C      375.725    -293.507    -147.883
  O      376.354    -292.521    -148.685
  P      375.672    -291.069    -148.762
  C      377.339    -290.166    -147.003
  O      375.976    -290.349    -147.358
  C      377.641    -288.700    -146.741
  O      377.433    -287.945    -147.968
  C      376.768    -288.057    -145.651
  O      377.585    -287.237    -144.805
  C      375.847    -287.134    -146.433
  O      375.372    -286.051    -145.640
  C      376.773    -286.725    -147.582
  N      376.523    -282.576    -150.452
  C      377.488    -282.965    -149.546
  N      378.504    -282.095    -149.340
  N      377.465    -284.099    -148.900
  C      376.409    -284.888    -149.230
  C      375.396    -284.616    -150.117
  C      375.404    -283.330    -150.782
  O      374.526    -282.890    -151.527
  N      374.515    -285.666    -150.199
  C      374.989    -286.565    -149.360
  N      376.115    -286.119    -148.715
  O      374.109    -291.413    -148.682
  O      375.990    -290.279    -149.981
  H      374.622    -286.388    -145.116
  H      373.651    -291.033    -149.458
  H      376.581    -281.685    -150.907
  H      374.542    -287.531    -149.172
  H      377.539    -286.021    -147.220
  H      374.986    -287.703    -146.793
  H      378.604    -281.217    -149.826
  H      376.209    -288.774    -145.044
  H      379.234    -282.370    -148.692
  H      378.706    -288.600    -146.486
  H      377.973    -290.525    -147.822
  H      377.553    -290.764    -146.108
  P      377.321    -287.372    -143.224
  C      378.410    -289.741    -143.177
  O      377.268    -288.942    -142.926
  O      375.805    -286.897    -143.062
  O      378.267    -286.577    -142.387
  H      375.646    -286.569    -142.157
  H      379.289    -289.132    -143.412
  H      378.203    -290.403    -144.018
  H      378.620    -290.343    -142.291
  H      376.288    -294.416    -147.928
  H      374.734    -293.683    -148.246
  H      375.679    -293.166    -146.870

 3  4  5  6  7  8  9  10  11  12  23  26  30  31  33  0
 6-311+G(2d,p)
 ****
 35  36  37  38 0
 6-311+G(2d,p)
 ****
 1  2  13  14  15  16  17  18  19  20  21  22  24  25  27  28  29 0
 3-21G
 ****
 32  34  39  40  41  42  43  44  45  46  47  48  49 0
 3-21G
 ****


