%nproc=1
%NoSave
%Mem=1900MB
#P OB98/GEN NMR

erre ene a

0 1
  C     -535.326    -962.331     194.783
  O     -536.685    -962.593     194.527
  H     -534.763    -963.256     194.685
  H     -535.203    -961.940     195.791
  H     -534.925    -961.606     194.054
  P     -537.695    -961.373     194.310
  C     -537.030    -960.545     196.659
  O     -537.210    -960.192     195.303
  C     -536.408    -959.376     197.443
  O     -537.014    -958.134     196.982
  C     -536.636    -959.450     198.967
  O     -535.511    -958.831     199.592
  C     -537.876    -958.599     199.136
  O     -538.048    -958.194     200.476
  C     -537.606    -957.492     198.124
  N     -538.818    -956.731     197.774
  C     -539.287    -955.841     198.731
  O     -538.761    -955.708     199.842
  N     -540.426    -955.170     198.417
  C     -541.136    -955.297     197.243
  O     -542.167    -954.682     197.021
  C     -540.621    -956.298     196.291
  C     -539.469    -956.939     196.586
  O     -539.145    -961.711     194.411
  O     -537.311    -960.795     192.866
  H     -537.241    -957.728     200.803
  H     -538.101    -960.411     192.434
  H     -540.784    -954.506     199.091
  H     -541.161    -956.443     195.375
  H     -539.072    -957.659     195.903
  H     -536.878    -956.777     198.518
  H     -538.783    -959.170     198.853
  H     -536.761    -960.475     199.335
  H     -535.342    -959.315     197.201
  H     -536.351    -961.412     196.708
  H     -537.995    -960.818     197.109
  P     -534.365    -959.676     200.332
  C     -535.726    -959.357     202.503
  O     -534.965    -960.263     201.712
  O     -533.070    -958.941     200.497
  O     -534.162    -960.974     199.411
  H     -533.250    -961.310     199.506
  H     -536.069    -959.855     203.386
  H     -536.567    -959.011     201.939
  H     -535.114    -958.523     202.779

 6  7  8  9  10  11  12  13  14  15  16  26  31  32  33  34  35 0
 6-311+G(2d,p)
 ****
 36  37 0
 6-311+G(2d,p)
 ****
 1  2  3  4  5  17  18  19  20  21  22  23  24  25 0
 3-21G
 ****
 27  28  29  30  38  39  40  41  42  43  44  45 0
 3-21G
 ****


