%nproc=1
%NoSave
%Mem=1900MB
#P OB98/GEN NMR

erre ene a

0 1
  C      -43.706     193.845     -86.575
  O      -43.464     195.228     -86.743
  H      -42.763     193.356     -86.313
  H      -44.077     193.410     -87.507
  H      -44.425     193.671     -85.770
  P      -44.711     196.205     -86.982
  C      -44.866     197.219     -89.350
  O      -45.111     196.084     -88.529
  C      -43.406     197.229     -89.798
  O      -43.070     195.973     -90.429
  C      -43.084     198.307     -90.824
  O      -42.981     199.579     -90.215
  C      -41.786     197.771     -91.405
  O      -40.672     198.088     -90.555
  C      -42.055     196.252     -91.422
  N      -42.454     195.758     -92.740
  C      -41.430     195.344     -93.585
  O      -40.237     195.408     -93.284
  N      -41.821     194.879     -94.813
  C      -43.092     194.892     -95.306
  O      -43.379     194.546     -96.448
  C      -44.132     195.364     -94.378
  C      -43.771     195.767     -93.157
  O      -44.545     197.600     -86.480
  O      -45.922     195.458     -86.242
  H      -40.709     199.052     -90.402
  H      -46.117     195.914     -85.401
  H      -41.092     194.587     -95.444
  H      -45.155     195.376     -94.726
  H      -44.521     196.123     -92.462
  H      -41.154     195.702     -91.110
  H      -41.568     198.192     -92.388
  H      -43.846     198.316     -91.612
  H      -42.774     197.338     -88.906
  H      -45.076     198.124     -88.771
  H      -45.538     197.184     -90.215
  P      -42.961     200.899     -91.120
  C      -40.703     202.127     -91.117
  O      -41.472     201.077     -91.692
  O      -43.545     202.117     -90.487
  O      -43.798     200.480     -92.421
  H      -44.578     201.061     -92.505
  H      -39.735     202.151     -91.572
  H      -40.598     201.958     -90.066
  H      -41.197     203.062     -91.281

 6  7  8  9  10  11  12  13  14  15  16  26  31  32  33  34  35 0
 6-311+G(2d,p)
 ****
 36  37 0
 6-311+G(2d,p)
 ****
 1  2  3  4  5  17  18  19  20  21  22  23  24  25 0
 3-21G
 ****
 27  28  29  30  38  39  40  41  42  43  44  45 0
 3-21G
 ****


