%nproc=1
%NoSave
%Mem=1900MB
#P OB98/GEN NMR

erre ene a

0 1
  C      -18.854    -221.248     182.602
  O      -17.814    -222.069     183.106
  P      -17.004    -222.958     182.041
  C      -17.373    -225.524     182.310
  O      -17.858    -224.293     181.794
  C      -17.861    -225.720     183.753
  O      -19.249    -225.330     183.859
  C      -17.799    -227.160     184.250
  O      -16.467    -227.536     184.569
  C      -18.747    -227.076     185.448
  O      -18.071    -226.490     186.568
  C      -19.842    -226.131     184.925
  N      -23.415    -229.654     185.946
  C      -22.367    -229.200     186.667
  N      -21.445    -228.284     186.323
  C      -21.697    -227.800     185.088
  C      -22.708    -228.185     184.226
  C      -23.606    -229.158     184.698
  N      -24.674    -229.621     183.957
  N      -22.629    -227.490     183.032
  C      -21.591    -226.698     183.175
  N      -20.995    -226.837     184.402
  O      -15.744    -223.480     182.881
  O      -16.586    -222.226     180.795
  H      -17.317    -227.066     186.784
  H      -14.951    -223.550     182.311
  H      -22.254    -229.638     187.656
  H      -21.228    -226.006     182.420
  H      -20.203    -225.435     185.698
  H      -19.122    -228.061     185.765
  H      -18.207    -227.844     183.491
  H      -17.268    -225.061     184.410
  H      -16.281    -225.521     182.306
  H      -25.178    -230.420     184.313
  H      -24.724    -229.351     182.980
  H      -17.716    -226.347     181.666
  P      -16.130    -229.104     184.572
  C      -15.695    -229.785     187.019
  O      -16.671    -229.615     185.998
  O      -14.541    -229.097     184.779
  O      -16.625    -229.859     183.374
  H      -14.277    -228.512     185.514
  H      -16.199    -230.086     187.943
  H      -15.153    -228.852     187.187
  H      -14.992    -230.578     186.723
  H      -19.309    -220.713     183.409
  H      -19.589    -221.859     182.120
  H      -18.449    -220.553     181.896

 3  4  5  6  7  8  9  10  11  12  22  25  29  30  31  32 0
 6-311+G(2d,p)
 ****
 33  36  37 0
 6-311+G(2d,p)
 ****
 1  2  13  14  15  16  17  18  19  20  21  23  24  26 0
 3-21G
 ****
 27  28  34  35  38  39  40  41  42  43  44  45  46  47  48 0
 3-21G
 ****


