%nproc=1
%NoSave
%Mem=1900MB
#P OB98/GEN NMR

erre ene a

0 1
  C       99.690    -272.341     216.075
  O      100.520    -273.436     216.407
  H      100.284    -271.426     216.127
  H       98.858    -272.259     216.782
  H       99.305    -272.450     215.057
  P       99.851    -274.894     216.515
  C      101.439    -275.263     218.529
  O      100.950    -275.772     217.297
  C      102.839    -275.813     218.807
  O      103.352    -275.314     220.061
  C      102.920    -277.333     218.932
  O      102.814    -278.007     217.685
  C      104.301    -277.474     219.557
  O      105.307    -277.266     218.550
  C      104.290    -276.303     220.575
  N      103.902    -276.725     221.921
  C      104.810    -277.540     222.609
  O      105.873    -277.872     222.085
  N      104.479    -277.994     223.861
  C      103.329    -277.678     224.380
  N      103.027    -278.192     225.604
  C      102.347    -276.805     223.699
  C      102.693    -276.377     222.484
  O       99.349    -275.489     215.239
  O       98.715    -274.729     217.634
  H      106.165    -277.218     219.007
  H       98.264    -275.604     217.730
  H      101.402    -276.581     224.170
  H      102.016    -275.743     221.915
  H      105.270    -275.823     220.623
  H      104.474    -278.458     219.997
  H      102.175    -277.705     219.642
  H      103.504    -275.435     218.016
  H      103.706    -278.817     226.022
  H      100.740    -275.552     219.321
  H      102.071    -278.224     225.944
  H      101.501    -274.171     218.490
  P      101.944    -279.355     217.633
  C      103.149    -280.974     219.283
  O      102.951    -280.567     217.940
  O      101.623    -279.512     216.076
  O      100.706    -279.362     218.479
  H      100.758    -279.115     215.850
  H      103.844    -281.787     219.311
  H      102.216    -281.289     219.702
  H      103.536    -280.154     219.851

 6  7  8  9  10  11  12  13  14  15  16  26  30  31  32  33  35 0
 6-311+G(2d,p)
 ****
 37  38 0
 6-311+G(2d,p)
 ****
 1  2  3  4  5  17  18  19  20  21  22  23  24  25 0
 3-21G
 ****
 27  28  29  34  36  39  40  41  42  43  44  45  46 0
 3-21G
 ****


