%nproc=1
%NoSave
%Mem=1900MB
#P OB98/GEN NMR

erre ene a

0 1
  C      312.412     705.571    1178.431
  O      311.548     705.772    1179.532
  H      312.357     704.524    1178.135
  H      313.439     705.811    1178.704
  H      312.091     706.196    1177.588
  P      311.541     707.229    1180.201
  C      313.382     707.101    1182.039
  O      311.994     707.037    1181.724
  C      313.616     708.154    1183.111
  O      313.437     709.471    1182.548
  C      312.649     708.083    1184.288
  O      312.982     707.058    1185.211
  C      312.790     709.472    1184.877
  O      313.919     709.551    1185.777
  C      313.030     710.344    1183.624
  N      311.831     711.120    1183.283
  C      311.472     712.124    1184.163
  O      312.130     712.397    1185.178
  N      310.340     712.825    1183.870
  C      309.503     712.578    1182.824
  O      308.455     713.195    1182.638
  C      309.901     711.476    1181.927
  C      311.033     710.805    1182.184
  O      309.982     707.585    1180.306
  O      312.305     708.270    1179.448
  H      309.757     708.255    1179.626
  H      314.031     710.503    1185.979
  H      310.080     713.562    1184.493
  H      309.244     711.237    1181.089
  H      311.336     709.974    1181.556
  H      313.842     711.055    1183.805
  H      311.905     709.760    1185.443
  H      311.615     707.951    1183.917
  H      314.658     708.067    1183.475
  H      313.953     707.372    1181.142
  H      313.710     706.114    1182.379
  P      311.771     706.258    1185.917
  C      311.704     707.664    1188.138
  O      311.983     706.436    1187.491
  O      312.217     704.745    1185.597
  O      310.443     706.640    1185.380
  H      313.187     704.665    1185.503
  H      311.912     707.571    1189.184
  H      310.673     707.914    1188.000
  H      312.317     708.435    1187.720

 6  7  8  9  10  11  12  13  14  15  16  27  31  32  33  34  35 0
 6-311+G(2d,p)
 ****
 36  37 0
 6-311+G(2d,p)
 ****
 1  2  3  4  5  17  18  19  20  21  22  23  24  25 0
 3-21G
 ****
 26  28  29  30  38  39  40  41  42  43  44  45 0
 3-21G
 ****


