%nproc=1
%NoSave
%Mem=1900MB
#P OB98/GEN NMR

erre ene a

0 1
  C     -450.410     220.523     110.273
  O     -451.280     219.504     109.814
  P     -450.619     218.143     109.285
  C     -450.819     216.412     111.224
  O     -451.368     216.933     110.022
  C     -451.865     215.551     111.939
  O     -452.860     216.388     112.565
  C     -452.633     214.628     111.005
  O     -451.874     213.476     110.672
  C     -453.874     214.317     111.827
  O     -453.622     213.256     112.762
  C     -454.105     215.651     112.567
  N     -455.198     216.432     111.995
  C     -456.476     216.107     112.440
  O     -456.691     215.206     113.253
  N     -457.501     216.824     111.894
  C     -457.383     217.777     110.923
  O     -458.351     218.350     110.428
  C     -456.012     218.058     110.468
  C     -454.998     217.377     111.011
  O     -449.160     218.144     109.942
  O     -450.561     218.019     107.799
  H     -453.262     212.509     112.248
  H     -448.518     217.744     109.324
  H     -458.430     216.623     112.220
  H     -455.883     218.806     109.698
  H     -453.983     217.558     110.679
  H     -454.338     215.463     113.625
  H     -454.716     214.001     111.205
  H     -452.931     215.171     110.100
  H     -451.360     214.972     112.722
  H     -450.515     217.237     111.872
  H     -449.930     215.818     110.986
  P     -451.963     212.956     109.155
  C     -449.865     214.427     108.658
  O     -450.493     213.170     108.556
  O     -452.858     214.110     108.498
  O     -452.534     211.583     109.042
  H     -452.699     214.976     108.910
  H     -450.115     214.928     109.599
  H     -450.171     215.057     107.820
  H     -448.781     214.286     108.614
  H     -450.986     221.366     110.593
  H     -449.756     220.818     109.479
  H     -449.831     220.154     111.094

 3  4  5  6  7  8  9  10  11  12  13  23  28  29  30  31  32 0
 6-311+G(2d,p)
 ****
 33  34 0
 6-311+G(2d,p)
 ****
 1  2  14  15  16  17  18  19  20  21  22  24  25  26 0
 3-21G
 ****
 27  35  36  37  38  39  40  41  42  43  44  45 0
 3-21G
 ****


