%nproc=1
%NoSave
%Mem=1900MB
#P OB98/GEN NMR

erre ene a

0 1
  C      522.572    -988.371    -257.126
  O      523.021    -989.644    -256.665
  P      524.471    -990.185    -257.055
  C      525.249    -991.034    -254.696
  O      525.396    -990.117    -255.770
  C      524.867    -990.267    -253.420
  O      523.722    -989.448    -253.645
  C      524.562    -991.213    -252.262
  O      525.712    -991.444    -251.472
  C      523.445    -990.493    -251.552
  O      523.979    -989.477    -250.687
  C      522.656    -989.847    -252.717
  N      521.698    -990.678    -253.455
  C      520.326    -990.543    -253.186
  O      519.875    -989.727    -252.377
  N      519.500    -991.384    -253.882
  C      519.896    -992.279    -254.842
  O      519.173    -993.199    -255.271
  C      521.294    -992.191    -255.252
  C      522.130    -991.434    -254.546
  O      525.056    -989.007    -258.003
  O      524.499    -991.512    -257.743
  H      524.413    -989.949    -249.929
  H      524.953    -989.236    -258.919
  H      518.528    -991.380    -253.605
  H      521.613    -992.789    -256.110
  H      523.182    -991.373    -254.813
  H      522.156    -988.941    -252.389
  H      522.877    -991.190    -250.913
  H      524.178    -992.172    -252.658
  H      525.708    -989.610    -253.155
  H      526.179    -991.602    -254.543
  H      524.467    -991.769    -254.952
  P      526.306    -992.922    -251.321
  C      528.351    -992.686    -252.856
  O      527.029    -993.221    -252.730
  O      525.327    -993.956    -250.867
  O      527.502    -992.734    -250.273
  H      527.185    -992.987    -249.364
  H      528.808    -993.100    -253.748
  H      528.966    -992.928    -251.993
  H      528.284    -991.584    -252.973
  H      521.583    -988.188    -256.762
  H      522.566    -988.361    -258.196
  H      523.231    -987.609    -256.766

 3  4  5  6  7  8  9  10  11  12  13  23  28  29  30  31  32 0
 6-311+G(2d,p)
 ****
 33  34 0
 6-311+G(2d,p)
 ****
 1  2  14  15  16  17  18  19  20  21  22  24  25  26  27 0
 3-21G
 ****
 35  36  37  38  39  40  41  42  43  44  45 0
 3-21G
 ****


