%nproc=1
%NoSave
%Mem=1900MB
#P OB98/GEN NMR

erre ene a

0 1
  C      231.745     101.623    -129.445
  O      230.706     102.143    -130.251
  H      231.974     100.605    -129.777
  H      231.432     101.589    -128.397
  H      232.644     102.240    -129.547
  P      230.145     103.596    -129.862
  C      228.866     104.537    -127.801
  O      229.181     103.398    -128.596
  C      227.404     104.469    -127.367
  O      226.545     104.570    -128.531
  C      227.016     103.163    -126.690
  O      227.419     103.110    -125.329
  C      225.504     103.196    -126.843
  O      224.882     103.959    -125.801
  C      225.319     103.873    -128.215
  N      224.956     102.906    -129.250
  C      223.675     103.051    -129.783
  O      222.887     103.925    -129.426
  N      223.312     102.124    -130.723
  C      224.068     101.058    -131.134
  O      223.659     100.233    -131.940
  C      225.403     100.950    -130.525
  C      225.781     101.864    -129.621
  O      229.136     103.927    -131.062
  O      231.184     104.652    -129.701
  H      229.530     104.598    -131.651
  H      225.226     104.872    -125.892
  H      222.394     102.211    -131.125
  H      226.029     100.117    -130.826
  H      226.757     101.794    -129.147
  H      224.534     104.633    -128.164
  H      225.087     102.193    -126.801
  H      227.413     102.307    -127.255
  H      227.195     105.322    -126.709
  H      229.024     105.448    -128.386
  H      229.533     104.558    -126.930
  P      227.725     101.664    -124.698
  C      226.171      99.625    -124.109
  O      226.297     101.013    -124.381
  O      228.310     102.088    -123.269
  O      228.644     100.839    -125.537
  H      227.956     102.945    -122.976
  H      225.144      99.390    -123.924
  H      226.755      99.376    -123.248
  H      226.519      99.064    -124.951

 6  7  8  9  10  11  12  13  14  15  16  27  31  32  33  34  35 0
 6-311+G(2d,p)
 ****
 36  37 0
 6-311+G(2d,p)
 ****
 1  2  3  4  5  17  18  19  20  21  22  23  24  25 0
 3-21G
 ****
 26  28  29  30  38  39  40  41  42  43  44  45 0
 3-21G
 ****


