%nproc=1
%NoSave
%Mem=1900MB
#P OB98/GEN NMR

erre ene a

0 1
  C      454.072    -986.656     895.615
  O      452.911    -987.398     895.927
  H      454.832    -987.336     895.219
  H      454.465    -986.181     896.511
  H      453.847    -985.907     894.857
  P      451.700    -986.606     896.625
  C      449.304    -987.309     897.355
  O      450.390    -987.508     896.450
  C      448.083    -988.087     896.861
  O      447.775    -987.710     895.506
  C      448.288    -989.595     896.828
  O      448.152    -990.189     898.103
  C      447.166    -990.005     895.881
  O      445.912    -990.150     896.564
  C      447.123    -988.827     894.886
  N      447.728    -989.183     893.610
  C      446.933    -988.974     892.470
  O      445.791    -988.534     892.534
  N      447.486    -989.340     891.287
  C      448.715    -989.926     891.107
  O      449.126    -990.289     890.006
  C      449.502    -990.136     892.328
  C      448.989    -989.765     893.504
  O      451.456    -985.382     895.631
  O      451.967    -986.156     898.018
  H      451.799    -984.552     896.029
  H      445.247    -990.343     895.861
  H      446.926    -989.206     890.450
  H      450.478    -990.596     892.238
  H      449.546    -989.909     894.438
  H      446.073    -988.538     894.696
  H      447.398    -990.961     895.404
  H      449.253    -989.833     896.363
  H      447.226    -987.828     897.498
  H      449.051    -986.238     897.392
  H      449.611    -987.631     898.355
  P      448.697    -991.703     898.280
  C      449.338    -993.143     900.383
  O      449.033    -991.871     899.842
  O      450.118    -991.588     897.572
  O      447.776    -992.730     897.694
  H      450.482    -990.675     897.612
  H      449.531    -993.048     901.431
  H      450.204    -993.540     899.895
  H      448.510    -993.803     900.231

 6  7  8  9  10  11  12  13  14  15  16  27  31  32  33  34  35 0
 6-311+G(2d,p)
 ****
 36  37 0
 6-311+G(2d,p)
 ****
 1  2  3  4  5  17  18  19  20  21  22  23  24  25 0
 3-21G
 ****
 26  28  29  30  38  39  40  41  42  43  44  45 0
 3-21G
 ****


