%nproc=1
%NoSave
%Mem=1900MB
#P OB98/GEN NMR

erre ene a

0 1
  C       20.488     434.711    -509.652
  O       21.029     434.287    -510.886
  H       21.313     434.980    -508.986
  H       19.923     433.899    -509.187
  H       19.850     435.582    -509.790
  P       20.043     433.788    -512.047
  C       21.444     435.327    -513.551
  O       20.127     434.921    -513.191
  C       21.458     435.962    -514.947
  O       21.143     434.953    -515.944
  C       20.447     437.107    -515.117
  O       21.079     438.222    -515.746
  C       19.398     436.523    -516.051
  O       18.682     437.515    -516.778
  C       20.256     435.574    -516.888
  N       19.451     434.609    -517.625
  C       19.330     434.825    -519.005
  O       19.892     435.789    -519.533
  N       18.532     433.986    -519.734
  C       17.872     433.034    -519.138
  N       17.079     432.259    -519.925
  C       17.954     432.781    -517.691
  C       18.760     433.599    -517.002
  O       18.664     433.453    -511.591
  O       20.802     432.547    -512.722
  H       18.191     438.081    -516.136
  H       20.138     431.984    -513.186
  H       17.383     431.991    -517.231
  H       18.885     433.488    -515.927
  H       20.873     436.137    -517.616
  H       18.669     435.945    -515.473
  H       20.008     437.430    -514.176
  H       22.478     436.293    -515.167
  H       17.047     432.470    -520.913
  H       22.103     434.457    -513.525
  H       16.508     431.506    -519.567
  H       21.789     436.071    -512.823
  P       20.933     439.632    -514.995
  C       23.323     439.336    -514.034
  O       21.970     439.657    -513.769
  O       19.491     439.528    -514.292
  O       21.013     440.812    -515.921
  H       18.871     440.137    -514.742
  H       23.888     439.395    -513.127
  H       23.720     440.027    -514.747
  H       23.383     438.343    -514.428

 6  7  8  9  10  11  12  13  14  15  16  26  30  31  32  33  35 0
 6-311+G(2d,p)
 ****
 37  38 0
 6-311+G(2d,p)
 ****
 1  2  3  4  5  17  18  19  20  21  22  23  24  25 0
 3-21G
 ****
 27  28  29  34  36  39  40  41  42  43  44  45  46 0
 3-21G
 ****


