%nproc=1
%NoSave
%Mem=1900MB
#P OB98/GEN NMR

erre ene a

0 1
  C      -60.526    -205.292      -5.655
  O      -59.799    -206.339      -4.999
  P      -59.947    -207.829      -5.565
  C      -60.160    -208.889      -7.930
  O      -59.731    -207.783      -7.153
  C      -59.455    -208.890      -9.291
  O      -59.800    -207.723     -10.071
  C      -57.936    -208.890      -9.190
  O      -57.422    -210.199      -8.985
  C      -57.551    -208.394     -10.575
  O      -57.626    -209.478     -11.522
  C      -58.641    -207.355     -10.863
  N      -54.921    -203.950     -11.252
  C      -54.997    -205.242     -11.730
  N      -53.926    -205.694     -12.420
  N      -56.030    -206.025     -11.550
  C      -57.030    -205.435     -10.857
  C      -57.075    -204.163     -10.331
  C      -55.921    -203.314     -10.527
  O      -55.791    -202.165     -10.116
  N      -58.261    -203.930      -9.687
  C      -58.943    -205.047      -9.839
  N      -58.235    -205.999     -10.528
  O      -61.521    -208.105      -5.431
  O      -59.144    -208.849      -4.828
  H      -57.341    -209.117     -12.383
  H      -61.681    -209.059      -5.323
  H      -54.098    -203.393     -11.417
  H      -59.949    -205.215      -9.471
  H      -58.947    -207.350     -11.915
  H      -56.526    -208.014     -10.611
  H      -53.121    -205.130     -12.642
  H      -57.588    -208.184      -8.426
  H      -53.977    -206.628     -12.806
  H      -59.779    -209.782      -9.841
  H      -61.244    -208.856      -8.075
  H      -59.963    -209.812      -7.377
  P      -57.663    -210.885      -7.557
  C      -59.477    -212.466      -6.580
  O      -59.019    -211.725      -7.693
  O      -58.069    -209.642      -6.631
  O      -56.489    -211.621      -7.011
  H      -57.771    -209.798      -5.714
  H      -60.482    -212.837      -6.797
  H      -59.518    -211.841      -5.685
  H      -58.818    -213.322      -6.405
  H      -60.328    -204.360      -5.167
  H      -61.574    -205.503      -5.609
  H      -60.219    -205.231      -6.678

 3  4  5  6  7  8  9  10  11  12  23  26  30  31 0
 6-311+G(2d,p)
 ****
 33  35  36  37  38 0
 6-311+G(2d,p)
 ****
 1  2  13  14  15  16  17  18  19  20  21  22  24  25 0
 3-21G
 ****
 27  28  29  32  34  39  40  41  42  43  44  45  46  47  48  49 0
 3-21G
 ****


