%nproc=1
%NoSave
%Mem=1900MB
#P OB98/GEN NMR

erre ene a

0 1
  C     -266.412      -0.088      86.465
  O     -266.690       0.748      85.350
  P     -265.451       1.526      84.684
  C     -263.700       3.127      85.734
  O     -265.049       2.674      85.730
  C     -263.646       4.649      85.785
  O     -264.275       5.199      84.611
  C     -264.382       5.269      86.964
  O     -263.604       5.237      88.152
  C     -264.572       6.699      86.472
  O     -263.368       7.453      86.700
  C     -264.805       6.498      84.966
  N     -268.559       9.461      83.296
  C     -267.240       9.770      83.561
  N     -266.860      11.046      83.322
  N     -266.370       8.909      84.021
  C     -266.880       7.663      84.175
  C     -268.171       7.237      83.948
  C     -269.136       8.211      83.488
  O     -270.336       8.011      83.299
  N     -268.303       5.894      84.205
  C     -267.091       5.504      84.548
  N     -266.199       6.548      84.576
  O     -266.137       2.342      83.488
  O     -264.342       0.656      84.197
  H     -263.562       8.381      86.473
  H     -265.478       2.523      82.790
  H     -269.181      10.159      82.927
  H     -266.819       4.484      84.784
  H     -264.252       7.242      84.377
  H     -265.381       7.224      86.989
  H     -267.445      11.715      82.846
  H     -265.361       4.801      87.111
  H     -265.886      11.281      83.476
  H     -262.592       4.956      85.783
  H     -263.200       2.783      84.823
  H     -263.185       2.695      86.599
  P     -264.411       5.137      89.536
  C     -266.343       6.538      90.562
  O     -265.306       6.459      89.597
  O     -263.276       5.383      90.639
  O     -265.125       3.841      89.739
  H     -263.528       4.961      91.484
  H     -266.058       6.052      91.497
  H     -267.245       6.062      90.165
  H     -266.556       7.590      90.766
  H     -267.319      -0.541      86.806
  H     -265.987       0.498      87.253
  H     -265.720      -0.851      86.175

 3  4  5  6  7  8  9  10  11  12  23  26  30  31  33  0
 6-311+G(2d,p)
 ****
 35  36  37  38 0
 6-311+G(2d,p)
 ****
 1  2  13  14  15  16  17  18  19  20  21  22  24  25  27  28  29 0
 3-21G
 ****
 32  34  39  40  41  42  43  44  45  46  47  48  49 0
 3-21G
 ****


