%nproc=1
%NoSave
%Mem=1900MB
#P OB98/GEN NMR

erre ene a

0 1
  C     -420.809    -458.696     310.952
  O     -421.715    -459.382     310.106
  H     -421.254    -457.737     311.236
  H     -419.874    -458.498     310.421
  H     -420.609    -459.273     311.859
  P     -421.400    -460.899     309.706
  C     -421.661    -460.610     307.151
  O     -422.191    -461.190     308.340
  C     -422.514    -461.005     305.950
  O     -422.361    -462.417     305.672
  C     -424.013    -460.780     306.151
  O     -424.334    -459.407     306.038
  C     -424.579    -461.670     305.055
  O     -424.520    -461.016     303.783
  C     -423.605    -462.879     305.104
  N     -424.137    -464.013     305.856
  C     -424.908    -464.928     305.144
  O     -425.187    -464.785     303.953
  N     -425.379    -465.999     305.857
  C     -425.218    -466.203     307.203
  O     -425.703    -467.162     307.799
  C     -424.420    -465.193     307.912
  C     -423.924    -464.167     307.216
  O     -421.610    -461.915     310.784
  O     -419.869    -460.853     309.228
  H     -423.571    -460.871     303.584
  H     -419.292    -461.176     309.943
  H     -425.948    -466.668     305.364
  H     -424.285    -465.320     308.973
  H     -423.342    -463.401     307.727
  H     -423.381    -463.224     304.087
  H     -425.629    -461.933     305.224
  H     -424.329    -461.179     307.128
  H     -422.150    -460.446     305.074
  H     -420.635    -460.979     307.011
  H     -421.637    -459.519     307.272
  P     -425.142    -458.664     307.196
  C     -427.052    -457.980     305.626
  O     -426.037    -457.514     306.509
  O     -424.321    -458.197     308.355
  O     -426.234    -459.738     307.668
  H     -425.987    -460.107     308.535
  H     -427.587    -457.145     305.224
  H     -427.729    -458.612     306.162
  H     -426.604    -458.534     304.828

 6  7  8  9  10  11  12  13  14  15  16  26  31  32  33  34  35 0
 6-311+G(2d,p)
 ****
 36  37 0
 6-311+G(2d,p)
 ****
 1  2  3  4  5  17  18  19  20  21  22  23  24  25 0
 3-21G
 ****
 27  28  29  30  38  39  40  41  42  43  44  45 0
 3-21G
 ****


