%nproc=1
%NoSave
%Mem=1900MB
#P OB98/GEN NMR

erre ene a

0 1
  C       66.450      75.381       1.961
  O       66.399      73.977       2.153
  P       65.473      73.057       1.232
  C       62.991      73.203       0.389
  O       63.976      73.602       1.317
  C       61.605      73.442       1.003
  O       61.406      72.571       2.135
  C       61.445      74.882       1.482
  O       60.822      75.675       0.484
  C       60.609      74.722       2.737
  O       59.215      74.588       2.400
  C       61.153      73.391       3.307
  N       62.389      73.432       4.111
  C       62.565      74.444       5.052
  O       61.728      75.309       5.286
  N       63.770      74.441       5.709
  C       64.763      73.519       5.549
  O       65.912      73.661       5.953
  C       64.409      72.339       4.755
  C       63.269      72.360       4.065
  O       65.411      71.680       2.044
  O       65.954      72.860      -0.168
  H       58.884      75.479       2.190
  H       66.045      71.035       1.678
  H       63.960      75.251       6.290
  H       65.112      71.518       4.714
  H       63.003      71.512       3.439
  H       60.392      72.883       3.910
  H       60.683      75.601       3.376
  H       62.421      75.300       1.763
  H       60.840      73.202       0.254
  H       63.120      72.145       0.136
  H       63.097      73.773      -0.540
  P       61.201      77.224       0.355
  C       60.817      79.261       1.863
  O       60.386      77.957       1.526
  O       61.040      77.816      -1.006
  O       62.725      77.271       0.848
  H       63.324      77.268       0.073
  H       60.081      79.711       2.533
  H       60.908      79.880       0.965
  H       61.780      79.209       2.378
  H       67.122      75.814       2.672
  H       65.473      75.795       2.096
  H       66.793      75.593       0.970

 3  4  5  6  7  8  9  10  11  12  13  23  28  29  30  31  32 0
 6-311+G(2d,p)
 ****
 33  34 0
 6-311+G(2d,p)
 ****
 1  2  14  15  16  17  18  19  20  21  22  24  25  26  27 0
 3-21G
 ****
 35  36  37  38  39  40  41  42  43  44  45 0
 3-21G
 ****


