%nproc=1
%NoSave
%Mem=1900MB
#P OB98/GEN NMR

erre ene a

0 1
  C      -59.489      73.434    -325.011
  O      -60.651      72.948    -325.660
  P      -61.082      71.431    -325.343
  C      -62.659      71.927    -323.322
  O      -61.434      71.381    -323.782
  C      -63.409      70.885    -322.493
  O      -64.151      69.997    -323.356
  C      -62.511      69.996    -321.643
  O      -62.155      70.656    -320.441
  C      -63.399      68.775    -321.435
  O      -64.350      69.005    -320.377
  C      -64.105      68.657    -322.794
  N      -62.851      63.840    -323.667
  C      -63.367      64.432    -322.531
  N      -63.629      63.609    -321.493
  N      -63.609      65.711    -322.422
  C      -63.287      66.412    -323.534
  C      -62.756      65.945    -324.714
  C      -62.543      64.521    -324.837
  O      -62.180      63.935    -325.854
  N      -62.542      66.961    -325.608
  C      -62.972      68.036    -324.979
  N      -63.454      67.756    -323.727
  O      -59.702      70.633    -325.460
  O      -62.147      70.873    -326.233
  H      -64.833      68.179    -320.193
  H      -59.626      70.201    -326.333
  H      -62.702      62.847    -323.699
  H      -62.976      69.032    -325.394
  H      -65.142      68.316    -322.691
  H      -62.824      67.890    -321.148
  H      -63.446      62.617    -321.494
  H      -61.616      69.707    -322.206
  H      -64.004      64.025    -320.648
  H      -64.133      71.415    -321.862
  H      -63.271      72.214    -324.182
  H      -62.450      72.820    -322.723
  P      -60.814      70.176    -319.702
  C      -59.261      71.792    -321.013
  O      -59.596      70.453    -320.704
  O      -60.950      68.581    -319.693
  O      -60.642      70.715    -318.321
  H      -60.573      68.225    -318.866
  H      -58.190      71.844    -321.228
  H      -59.493      72.469    -320.187
  H      -59.817      72.104    -321.901
  H      -59.314      74.448    -325.305
  H      -58.648      72.832    -325.287
  H      -59.627      73.389    -323.951

 3  4  5  6  7  8  9  10  11  12  23  26  30  31 0
 6-311+G(2d,p)
 ****
 33  35  36  37  38 0
 6-311+G(2d,p)
 ****
 1  2  13  14  15  16  17  18  19  20  21  22  24  25 0
 3-21G
 ****
 27  28  29  32  34  39  40  41  42  43  44  45  46  47  48  49 0
 3-21G
 ****


