%nproc=1
%NoSave
%Mem=1900MB
#P OB98/GEN NMR

erre ene a

0 1
  C       37.165    -366.388    -185.955
  O       36.405    -367.221    -185.091
  P       34.857    -367.452    -185.458
  C       35.151    -369.837    -184.474
  O       34.341    -368.674    -184.555
  C       34.482    -370.912    -183.615
  O       34.683    -370.581    -182.211
  C       32.967    -371.060    -183.838
  O       32.658    -372.443    -183.672
  C       32.396    -370.225    -182.705
  O       31.029    -370.486    -182.431
  C       33.377    -370.578    -181.590
  N       30.552    -368.808    -177.708
  C       30.340    -369.808    -178.596
  N       31.142    -370.226    -179.598
  C       32.273    -369.505    -179.629
  C       32.622    -368.447    -178.809
  C       31.701    -368.098    -177.804
  N       31.915    -367.073    -176.908
  N       33.854    -367.932    -179.160
  C       34.242    -368.666    -180.184
  N       33.334    -369.641    -180.492
  O       34.924    -368.082    -186.928
  O       34.007    -366.221    -185.415
  H       30.787    -370.123    -181.553
  H       34.203    -367.743    -187.490
  H       29.396    -370.341    -178.489
  H       35.160    -368.526    -180.739
  H       33.196    -371.581    -181.183
  H       32.471    -369.165    -182.967
  H       32.644    -370.736    -184.834
  H       34.987    -371.868    -183.800
  H       36.111    -369.580    -184.016
  H       31.121    -366.777    -176.367
  H       32.671    -366.427    -177.118
  H       35.351    -370.213    -185.486
  P       31.250    -372.997    -184.214
  C       31.772    -375.505    -184.449
  O       31.176    -374.499    -183.647
  O       31.602    -373.258    -185.759
  O       30.071    -372.121    -183.983
  H       32.415    -373.783    -185.863
  H       31.742    -376.452    -183.897
  H       32.816    -375.254    -184.661
  H       31.213    -375.617    -185.381
  H       38.170    -366.322    -185.594
  H       36.731    -365.410    -185.981
  H       37.166    -366.804    -186.941

 3  4  5  6  7  8  9  10  11  12  22  25  29  30  31  32 0
 6-311+G(2d,p)
 ****
 33  36  37 0
 6-311+G(2d,p)
 ****
 1  2  13  14  15  16  17  18  19  20  21  23  24  26 0
 3-21G
 ****
 27  28  34  35  38  39  40  41  42  43  44  45  46  47  48 0
 3-21G
 ****


