%nproc=1
%NoSave
%Mem=1900MB
#P OB98/GEN NMR

erre ene a

0 1
  C       67.881      67.077     137.494
  O       68.097      65.699     137.714
  H       67.147      67.192     136.692
  H       68.809      67.570     137.190
  H       67.486      67.549     138.397
  P       69.226      65.263     138.768
  C       69.529      63.170     137.271
  O       69.342      63.669     138.587
  C       69.492      61.644     137.276
  O       70.462      61.105     138.198
  C       68.163      61.036     137.712
  O       67.146      61.138     136.729
  C       68.597      59.600     137.954
  O       68.757      58.926     136.692
  C       69.965      59.812     138.646
  N       69.878      59.776     140.105
  C       70.658      58.810     140.755
  O       71.371      58.043     140.111
  N       70.584      58.712     142.124
  C       69.787      59.493     142.783
  N       69.715      59.322     144.133
  C       68.962      60.535     142.140
  C       69.052      60.617     140.815
  O       69.035      65.734     140.175
  O       70.597      65.762     138.111
  H       67.885      58.924     136.258
  H       71.328      65.526     138.733
  H       68.309      61.156     142.736
  H       68.463      61.347     140.268
  H       70.689      59.057     138.315
  H       67.876      59.023     138.540
  H       67.831      61.466     138.663
  H       69.780      61.304     136.272
  H       70.261      58.572     144.533
  H       70.491      63.538     136.901
  H       68.934      59.687     144.669
  H       68.733      63.533     136.614
  P       65.716      61.713     137.184
  C       64.771      59.363     137.796
  O       64.659      60.523     136.987
  O       65.356      62.739     136.012
  O       65.675      62.348     138.538
  H       65.632      63.647     136.242
  H       63.995      58.673     137.539
  H       64.678      59.636     138.826
  H       65.724      58.905     137.633

 6  7  8  9  10  11  12  13  14  15  16  26  30  31  32  33  35 0
 6-311+G(2d,p)
 ****
 37  38 0
 6-311+G(2d,p)
 ****
 1  2  3  4  5  17  18  19  20  21  22  23  24  25 0
 3-21G
 ****
 27  28  29  34  36  39  40  41  42  43  44  45  46 0
 3-21G
 ****


