%nproc=1
%NoSave
%Mem=1900MB
#P OB98/GEN NMR

erre ene a

0 1
  C      217.733       4.814      44.266
  O      217.856       4.098      45.479
  H      217.339       4.142      43.501
  H      218.716       5.170      43.950
  H      217.048       5.658      44.381
  P      218.100       4.963      46.809
  C      220.515       4.148      47.299
  O      219.153       4.140      47.699
  C      221.287       3.053      48.029
  O      221.626       3.481      49.365
  C      220.525       1.740      48.179
  O      220.632       0.938      47.011
  C      221.272       1.112      49.342
  O      222.527       0.568      48.877
  C      221.533       2.325      50.246
  N      219.691       0.967      54.771
  C      220.738       0.434      54.045
  N      221.380      -0.615      54.600
  N      221.119       0.884      52.878
  C      220.370       1.921      52.435
  C      219.305       2.531      53.059
  C      218.906       2.035      54.355
  O      217.991       2.479      55.044
  N      218.794       3.552      52.301
  C      219.534       3.545      51.211
  N      220.503       2.572      51.241
  O      216.717       4.791      47.600
  O      218.421       6.401      46.583
  H      222.359      -0.356      48.620
  H      216.187       5.603      47.487
  H      219.432       0.576      55.660
  H      219.417       4.224      50.378
  H      222.483       2.246      50.785
  H      220.722       0.289      49.802
  H      221.124      -1.025      55.485
  H      219.479       1.908      48.461
  H      222.154      -1.020      54.087
  H      222.230       2.892      47.490
  H      220.952       5.123      47.538
  H      220.568       3.985      46.218
  P      219.281       0.496      46.267
  C      219.976      -2.000      46.345
  O      219.584      -0.901      45.535
  O      219.191       1.540      45.057
  O      218.052       0.530      47.108
  H      218.439       2.149      45.198
  H      220.143      -2.857      45.727
  H      219.202      -2.216      47.052
  H      220.878      -1.755      46.866

 6  7  8  9  10  11  12  13  14  15  26  29  33  34 0
 6-311+G(2d,p)
 ****
 36  38  39  40  41 0
 6-311+G(2d,p)
 ****
 1  2  3  4  5  16  17  18  19  20  21  22  23  24  25 0
 3-21G
 ****
 27  28  30  31  32  35  37  42  43  44  45  46  47 0
 3-21G
 ****
 48  49 0
 3-21G
 ****


