%nproc=1
%NoSave
%Mem=1900MB
#P OB98/GEN NMR

erre ene a

0 1
  C       96.826      69.272     406.230
  O       97.148      67.897     406.193
  H       95.777      69.377     406.520
  H       96.958      69.714     405.238
  H       97.447      69.802     406.958
  P       98.675      67.470     405.971
  C       98.127      65.677     404.192
  O       98.661      65.942     405.480
  C       96.788      64.935     404.301
  O       95.781      65.862     404.811
  C       96.258      64.388     402.960
  O       95.494      63.211     403.259
  C       95.363      65.532     402.517
  O       94.533      65.186     401.436
  C       94.693      65.859     403.860
  N       93.967      67.122     403.903
  C       92.582      67.067     404.011
  O       91.925      66.026     404.074
  N       91.938      68.278     404.044
  C       92.535      69.505     403.991
  O       91.905      70.556     404.054
  C       94.000      69.498     403.871
  C       94.640      68.326     403.842
  O       99.605      67.760     407.103
  O       99.101      68.260     404.643
  H       99.630      69.045     404.886
  H       95.089      65.021     400.647
  H       90.932      68.259     404.123
  H       94.502      70.456     403.820
  H       95.724      68.292     403.764
  H       94.021      65.046     404.147
  H       95.974      66.369     402.170
  H       97.054      64.135     402.253
  H       96.887      64.135     405.044
  H       98.847      65.063     403.643
  H       97.986      66.624     403.660
  P       95.544      61.871     402.372
  C       93.104      61.256     402.986
  O       94.463      60.839     402.965
  O       96.915      61.293     402.229
  O       94.942      62.283     400.947
  H       95.303      61.698     400.258
  H       92.499      60.478     403.403
  H       92.780      61.465     401.988
  H       93.011      62.139     403.583

 6  7  8  9  10  11  12  13  14  15  16  27  31  32  33  34  35 0
 6-311+G(2d,p)
 ****
 36  37 0
 6-311+G(2d,p)
 ****
 1  2  3  4  5  17  18  19  20  21  22  23  24  25 0
 3-21G
 ****
 26  28  29  30  38  39  40  41  42  43  44  45 0
 3-21G
 ****


