%nproc=1
%NoSave
%Mem=1900MB
#P OB98/GEN NMR

erre ene a

0 1
  C       23.692     221.218     113.108
  O       22.931     221.154     114.299
  H       23.783     220.213     112.693
  H       24.691     221.603     113.323
  H       23.198     221.861     112.370
  P       22.473     222.542     114.958
  C       20.438     221.613     116.290
  O       21.744     222.173     116.343
  C       20.276     220.561     117.390
  O       21.285     219.522     117.187
  C       20.465     221.107     118.812
  O       19.560     220.416     119.686
  C       21.888     220.703     119.155
  O       22.146     220.617     120.551
  C       21.982     219.350     118.435
  N       23.366     218.929     118.213
  C       23.994     218.219     119.236
  O       23.445     217.853     120.274
  N       25.321     217.935     119.026
  C       26.064     218.298     117.940
  O       27.260     218.030     117.822
  C       25.349     219.051     116.899
  C       24.058     219.328     117.081
  O       21.265     223.005     114.017
  O       23.537     223.584     115.075
  H       21.595     223.550     113.276
  H       23.121     220.557     120.664
  H       25.790     217.422     119.759
  H       25.910     219.364     116.028
  H       23.502     219.906     116.340
  H       21.454     218.577     119.007
  H       22.598     221.424     118.721
  H       20.311     222.188     118.902
  H       19.297     220.083     117.277
  H       20.286     221.144     115.316
  H       19.699     222.411     116.417
  P       18.458     221.296     120.453
  C       16.660     219.408     120.145
  O       17.397     220.244     121.036
  O       17.699     221.989     119.224
  O       19.052     222.238     121.448
  H       17.639     221.406     118.442
  H       16.006     218.776     120.708
  H       17.338     218.805     119.579
  H       16.083     220.016     119.480

 6  7  8  9  10  11  12  13  14  15  16  27  31  32  33  34  35 0
 6-311+G(2d,p)
 ****
 36  37 0
 6-311+G(2d,p)
 ****
 1  2  3  4  5  17  18  19  20  21  22  23  24  25 0
 3-21G
 ****
 26  28  29  30  38  39  40  41  42  43  44  45 0
 3-21G
 ****


