%nproc=1
%NoSave
%Mem=1900MB
#P OB98/GEN NMR

erre ene a

0 1
  C       78.688    -481.783    -363.341
  O       77.605    -482.211    -364.142
  H       78.361    -481.733    -362.300
  H       79.017    -480.789    -363.655
  H       79.521    -482.487    -363.417
  P       77.901    -482.464    -365.696
  C       76.125    -480.720    -366.466
  O       76.553    -482.071    -366.481
  C       74.877    -480.581    -365.594
  O       73.753    -481.179    -366.297
  C       75.001    -481.287    -364.240
  O       74.324    -480.512    -363.245
  C       74.264    -482.596    -364.461
  O       73.782    -483.192    -363.264
  C       73.148    -482.144    -365.411
  N       72.573    -483.253    -366.168
  C       71.198    -483.440    -366.088
  O       70.423    -482.696    -365.484
  N       70.711    -484.548    -366.737
  C       71.448    -485.468    -367.420
  O       70.955    -486.452    -367.964
  C       72.897    -485.223    -367.462
  C       73.385    -484.145    -366.845
  O       77.938    -484.058    -365.811
  O       79.136    -481.820    -366.233
  H       78.846    -484.389    -365.674
  H       74.558    -483.407    -362.702
  H       69.714    -484.696    -366.688
  H       73.514    -485.936    -367.990
  H       74.449    -483.940    -366.847
  H       72.356    -481.629    -364.854
  H       74.923    -483.317    -364.955
  H       76.037    -481.450    -363.939
  H       74.649    -479.516    -365.465
  H       75.887    -480.407    -367.488
  H       76.932    -480.086    -366.077
  P       75.232    -479.676    -362.218
  C       75.539    -481.498    -360.371
  O       74.924    -480.284    -360.764
  O       74.491    -478.260    -362.221
  O       76.674    -479.641    -362.609
  H       73.524    -478.327    -362.287
  H       75.224    -481.753    -359.381
  H       76.602    -481.381    -360.388
  H       75.255    -482.277    -361.048

 6  7  8  9  10  11  12  13  14  15  16  27  31  32  33  34  35 0
 6-311+G(2d,p)
 ****
 36  37 0
 6-311+G(2d,p)
 ****
 1  2  3  4  5  17  18  19  20  21  22  23  24  25 0
 3-21G
 ****
 26  28  29  30  38  39  40  41  42  43  44  45 0
 3-21G
 ****


