%nproc=1
%NoSave
%Mem=1900MB
#P OB98/GEN NMR

erre ene a

0 1
  C      -99.983     -77.241     456.641
  O     -100.860     -78.084     455.876
  P     -101.320     -79.548     456.352
  C      -99.711     -80.642     454.639
  O     -101.036     -80.574     455.150
  C      -99.501     -81.924     453.834
  O      -99.507     -83.077     454.701
  C     -100.594     -82.231     452.803
  O     -100.520     -81.386     451.672
  C     -100.313     -83.707     452.510
  O      -99.287     -83.853     451.514
  C      -99.805     -84.221     453.866
  N     -100.747     -85.117     454.527
  C     -100.432     -86.472     454.519
  O      -99.443     -86.879     453.913
  N     -101.254     -87.343     455.195
  C     -102.356     -86.908     455.730
  N     -103.121     -87.812     456.403
  C     -102.796     -85.502     455.638
  C     -101.951     -84.669     455.032
  O     -102.717     -79.602     456.882
  O     -100.259     -79.980     457.474
  H     -100.672     -80.621     458.085
  H      -99.549     -83.296     450.754
  H     -103.744     -85.187     456.064
  H     -102.192     -83.615     454.937
  H      -98.850     -84.744     453.744
  H     -101.204     -84.221     452.141
  H     -101.574     -82.134     453.282
  H      -98.524     -81.862     453.336
  H     -102.781     -88.766     456.449
  H      -99.014     -80.640     455.488
  H     -103.979     -87.574     456.871
  H      -99.514     -79.756     454.026
  P     -101.380     -80.034     451.722
  C     -103.671     -81.239     451.476
  O     -102.758     -80.307     450.939
  O     -100.580     -79.040     450.744
  O     -101.539     -79.445     453.085
  H     -100.587     -78.139     451.119
  H     -104.683     -80.964     451.157
  H     -103.636     -81.255     452.569
  H     -103.435     -82.231     451.091
  H      -99.826     -76.321     456.117
  H      -99.045     -77.736     456.781
  H     -100.425     -77.038     457.594

 3  4  5  6  7  8  9  10  11  12  13  24  27  28  29  30  32 0
 6-311+G(2d,p)
 ****
 34  35 0
 6-311+G(2d,p)
 ****
 1  2  14  15  16  17  18  19  20  21  22  23  25  26 0
 3-21G
 ****
 31  33  36  37  38  39  40  41  42  43  44  45  46 0
 3-21G
 ****


