%nproc=1
%NoSave
%Mem=1900MB
#P OB98/GEN NMR

erre ene a

0 1
  C      -78.161     886.767     307.134
  O      -78.847     885.645     307.655
  P      -78.365     884.184     307.190
  C      -78.109     882.993     304.889
  O      -78.714     884.035     305.636
  C      -79.102     882.482     303.828
  O      -79.461     883.536     302.909
  C      -78.531     881.361     302.954
  O      -78.569     880.119     303.641
  C      -79.457     881.420     301.743
  O      -80.676     880.700     301.982
  C      -79.738     882.930     301.633
  N      -78.986     883.571     300.549
  C      -79.295     883.168     299.274
  O      -80.156     882.306     299.024
  N      -78.591     883.754     298.261
  C      -77.565     884.641     298.415
  O      -76.918     885.086     297.471
  C      -77.248     885.011     299.802
  C      -77.952     884.471     300.794
  O      -79.371     883.193     307.913
  O      -76.942     883.875     307.524
  H      -81.130     880.620     301.115
  H      -78.907     882.370     308.182
  H      -78.814     883.495     297.316
  H      -76.447     885.718     299.958
  H      -77.733     884.713     301.833
  H      -80.805     883.104     301.449
  H      -79.001     880.989     300.860
  H      -77.507     881.620     302.646
  H      -80.013     882.140     304.337
  H      -77.835     882.174     305.552
  H      -77.206     883.377     304.407
  P      -77.599     878.964     303.077
  C      -76.602     878.649     300.666
  O      -77.684     879.091     301.461
  O      -78.434     877.650     303.438
  O      -76.233     878.995     303.675
  H      -79.404     877.811     303.394
  H      -76.123     877.768     301.095
  H      -75.886     879.461     300.565
  H      -76.984     878.399     299.677
  H      -78.590     887.663     307.530
  H      -78.245     886.773     306.067
  H      -77.129     886.714     307.410

 3  4  5  6  7  8  9  10  11  12  13  23  28  29  30  31  32 0
 6-311+G(2d,p)
 ****
 33  34 0
 6-311+G(2d,p)
 ****
 1  2  14  15  16  17  18  19  20  21  22  24  25  26 0
 3-21G
 ****
 27  35  36  37  38  39  40  41  42  43  44  45 0
 3-21G
 ****


