%nproc=1
%NoSave
%Mem=1900MB
#P OB98/GEN NMR

erre ene a

0 1
  C     -274.684    -153.832      -1.938
  O     -275.705    -153.053      -1.347
  H     -273.734    -153.301      -1.829
  H     -274.882    -153.971      -3.005
  H     -274.603    -154.802      -1.440
  P     -277.208    -153.610      -1.377
  C     -277.692    -151.425      -2.685
  O     -277.894    -152.826      -2.606
  C     -278.997    -150.725      -3.067
  O     -279.713    -151.467      -4.081
  C     -279.998    -150.566      -1.927
  O     -279.640    -149.574      -0.984
  C     -281.237    -150.193      -2.723
  O     -281.143    -148.822      -3.145
  C     -281.127    -151.165      -3.918
  N     -281.896    -152.395      -3.719
  C     -282.240    -153.110      -4.871
  O     -281.911    -152.709      -5.983
  N     -282.984    -154.263      -4.736
  C     -283.366    -154.647      -3.561
  N     -284.104    -155.794      -3.488
  C     -283.044    -153.909      -2.321
  C     -282.313    -152.809      -2.469
  O     -277.957    -153.553      -0.084
  O     -277.077    -155.090      -1.973
  H     -280.372    -148.758      -3.736
  H     -277.982    -155.485      -2.003
  H     -283.418    -154.258      -1.367
  H     -282.041    -152.210      -1.609
  H     -281.463    -150.683      -4.847
  H     -282.161    -150.289      -2.145
  H     -280.181    -151.533      -1.432
  H     -278.731    -149.752      -3.507
  H     -284.313    -156.272      -4.349
  H     -276.911    -151.233      -3.426
  H     -284.515    -156.121      -2.619
  H     -277.365    -151.040      -1.714
  P     -279.634    -150.011       0.567
  C     -281.901    -149.138       1.536
  O     -281.171    -150.218       0.978
  O     -279.207    -148.663       1.316
  O     -278.744    -151.169       0.899
  H     -278.253    -148.679       1.535
  H     -282.901    -149.455       1.747
  H     -281.924    -148.326       0.840
  H     -281.429    -148.819       2.442

 6  7  8  9  10  11  12  13  14  15  16  26  30  31  32  33  35 0
 6-311+G(2d,p)
 ****
 37  38 0
 6-311+G(2d,p)
 ****
 1  2  3  4  5  17  18  19  20  21  22  23  24  25 0
 3-21G
 ****
 27  28  29  34  36  39  40  41  42  43  44  45  46 0
 3-21G
 ****


