%nproc=1
%NoSave
%Mem=1900MB
#P OB98/GEN NMR

erre ene a

0 1
  C       48.062     828.268     173.430
  O       48.806     827.412     172.583
  H       47.040     828.343     173.052
  H       48.512     829.267     173.430
  H       48.042     827.869     174.451
  P       50.289     827.030     173.049
  C       52.115     827.587     171.245
  O       51.293     828.040     172.310
  C       53.530     828.152     171.391
  O       53.488     829.572     171.629
  C       54.288     827.599     172.580
  O       54.686     826.251     172.408
  C       55.455     828.579     172.644
  O       56.448     828.267     171.660
  C       54.743     829.909     172.304
  N       54.519     830.746     173.475
  C       54.340     832.113     173.223
  O       54.373     832.540     172.070
  N       54.174     832.965     174.285
  C       54.151     832.486     175.493
  N       53.981     833.378     176.515
  C       54.305     831.050     175.804
  C       54.485     830.242     174.756
  O       50.551     825.653     172.289
  O       50.497     826.969     174.530
  H       57.244     828.777     171.896
  H       50.401     825.701     171.321
  H       54.271     830.695     176.827
  H       54.603     829.182     174.895
  H       55.339     830.495     171.576
  H       55.956     828.565     173.617
  H       53.700     827.717     173.501
  H       54.066     827.972     170.454
  H       53.906     834.359     176.266
  H       51.687     827.855     170.275
  H       53.984     833.130     177.486
  H       52.149     826.494     171.293
  P       54.937     825.301     173.669
  C       57.225     826.201     174.448
  O       55.820     826.160     174.706
  O       55.478     823.950     173.354
  O       53.499     825.279     174.406
  H       53.180     826.153     174.686
  H       57.708     826.796     175.195
  H       57.398     826.631     173.483
  H       57.621     825.207     174.472

 6  7  8  9  10  11  12  13  14  15  16  26  30  31  32  33  35 0
 6-311+G(2d,p)
 ****
 37  38 0
 6-311+G(2d,p)
 ****
 1  2  3  4  5  17  18  19  20  21  22  23  24  25 0
 3-21G
 ****
 27  28  29  34  36  39  40  41  42  43  44  45  46 0
 3-21G
 ****


