%nproc=1
%NoSave
%Mem=1900MB
#P OB98/GEN NMR

erre ene a

0 1
  C     -257.611    1064.478     504.463
  O     -257.983    1064.991     505.738
  P     -256.975    1064.695     506.956
  C     -254.711    1065.713     507.715
  O     -255.954    1065.930     507.072
  C     -253.909    1067.018     507.761
  O     -253.875    1067.672     506.468
  C     -254.481    1068.053     508.722
  O     -254.201    1067.707     510.066
  C     -253.794    1069.327     508.224
  O     -252.447    1069.384     508.726
  C     -253.762    1069.097     506.706
  N     -255.076    1073.419     504.293
  C     -253.925    1073.032     504.899
  N     -253.659    1071.865     505.507
  C     -254.721    1071.052     505.478
  C     -255.964    1071.309     504.905
  C     -256.114    1072.560     504.297
  N     -257.300    1072.962     503.695
  N     -256.811    1070.226     505.064
  C     -256.104    1069.343     505.747
  N     -254.831    1069.787     506.012
  O     -256.072    1063.502     506.404
  O     -257.667    1064.324     508.227
  H     -251.940    1068.669     508.301
  H     -256.299    1062.665     506.865
  H     -253.107    1073.756     504.878
  H     -256.462    1068.364     506.067
  H     -252.807    1069.422     506.256
  H     -254.296    1070.244     508.543
  H     -255.579    1068.146     508.576
  H     -252.874    1066.769     508.054
  H     -254.143    1064.946     507.179
  H     -257.353    1073.909     503.352
  H     -258.109    1072.362     503.762
  H     -254.893    1065.322     508.726
  P     -255.378    1067.036     510.929
  C     -255.632    1064.722     512.025
  O     -254.720    1065.653     511.450
  O     -256.373    1066.540     509.783
  O     -255.974    1067.915     511.975
  H     -255.897    1066.088     509.058
  H     -255.059    1063.825     512.300
  H     -256.400    1064.453     511.291
  H     -256.081    1065.148     512.924
  H     -258.357    1064.739     503.742
  H     -257.526    1063.413     504.518
  H     -256.671    1064.896     504.171

 3  4  5  6  7  8  9  10  11  12  22  25  29  30  31  32 0
 6-311+G(2d,p)
 ****
 33  36  37 0
 6-311+G(2d,p)
 ****
 1  2  13  14  15  16  17  18  19  20  21  23  24  26 0
 3-21G
 ****
 27  28  34  35  38  39  40  41  42  43  44  45  46  47  48 0
 3-21G
 ****


