%nproc=1
%NoSave
%Mem=1900MB
#P OB98/GEN NMR

erre ene a

0 1
  C      552.002    -889.120    -981.639
  O      552.950    -889.240    -980.610
  H      551.016    -889.440    -981.297
  H      551.940    -888.060    -981.940
  H      552.297    -889.700    -982.515
  P      553.178    -890.720    -980.028
  C      555.443    -890.870    -981.280
  O      554.178    -891.470    -981.043
  C      556.349    -891.820    -982.040
  O      556.392    -893.080    -981.303
  C      555.889    -892.130    -983.473
  O      556.974    -891.950    -984.392
  C      555.505    -893.600    -983.458
  O      555.797    -894.270    -984.669
  C      556.338    -894.140    -982.278
  N      554.534    -898.770    -983.423
  C      555.373    -897.950    -984.090
  N      555.883    -896.760    -983.689
  C      555.492    -896.470    -982.438
  C      554.654    -897.210    -981.607
  C      554.152    -898.420    -982.168
  N      553.254    -899.220    -981.501
  N      554.458    -896.590    -980.401
  C      555.128    -895.450    -980.510
  N      555.758    -895.330    -981.718
  O      551.760    -891.430    -980.295
  O      553.551    -890.770    -978.588
  H      555.397    -893.750    -985.396
  H      551.379    -891.710    -979.441
  H      555.663    -898.290    -985.081
  H      555.155    -894.660    -979.755
  H      557.373    -894.360    -982.582
  H      554.434    -893.670    -983.256
  H      555.036    -891.500    -983.784
  H      557.362    -891.420    -982.027
  H      555.907    -890.610    -980.313
  H      552.852    -900.000    -982.012
  H      552.871    -898.900    -980.625
  H      555.290    -889.940    -981.854
  P      557.554    -890.460    -984.540
  C      559.817    -891.040    -983.368
  O      558.642    -890.220    -983.352
  O      556.332    -889.530    -984.093
  O      558.026    -890.120    -985.905
  H      556.095    -888.910    -984.795
  H      560.443    -890.782    -982.540
  H      560.351    -890.881    -984.282
  H      559.535    -892.069    -983.294

 6  7  8  9  10  11  12  13  14  15  25  28  32  33  34  35 0
 6-311+G(2d,p)
 ****
 36  39  40 0
 6-311+G(2d,p)
 ****
 1  2  3  4  5  16  17  18  19  20  21  22  23  24 0
 3-21G
 ****
 26  27  29  30  31  37  38  41  42  43  44  45  46  47  48 0
 3-21G
 ****


