%nproc=1
%NoSave
%Mem=1900MB
#P OB98/GEN NMR

erre ene a

0 1
  C     1004.654     153.847      15.927
  O     1004.321     154.609      14.784
  P     1003.115     155.667      14.923
  C     1001.764     154.138      13.312
  O     1001.778     154.859      14.537
  C     1000.326     153.755      12.957
  O      999.774     152.880      13.947
  C      999.375     154.940      12.885
  O      999.552     155.664      11.680
  C      998.020     154.252      12.988
  O      997.550     153.810      11.710
  C      998.331     153.042      13.905
  N      997.773     153.180      15.235
  C      996.382     153.103      15.312
  O      995.696     152.958      14.296
  N      995.787     153.242      16.546
  C      996.507     153.433      17.602
  N      995.875     153.559      18.790
  C      998.000     153.539      17.562
  C      998.548     153.396      16.347
  O     1003.332     156.647      13.684
  O     1003.087     156.401      16.227
  H      998.232     153.188      11.378
  H     1002.972     157.524      13.856
  H      998.556     153.705      18.462
  H      999.621     153.462      16.219
  H      997.938     152.116      13.457
  H      997.250     154.919      13.405
  H      999.517     155.611      13.743
  H     1000.347     153.227      11.988
  H      994.866     153.506      18.793
  H     1002.345     153.219      13.417
  H      996.361     153.696      19.675
  H     1002.212     154.757      12.527
  P      998.742     157.037      11.495
  C      997.349     156.233       9.501
  O      997.345     156.613      10.865
  O      999.499     157.699      10.234
  O      998.700     157.955      12.663
  H      999.152     158.611      10.098
  H      996.374     155.823       9.234
  H      998.110     155.459       9.332
  H      997.542     157.095       8.869
  H     1005.466     153.190      15.694
  H     1003.805     153.271      16.231
  H     1004.943     154.503      16.721

 3  4  5  6  7  8  9  10  11  12  13  21  23  27  28  29  30  32 0
 6-311+G(2d,p)
 ****
 34  35 0
 6-311+G(2d,p)
 ****
 1  2  14  15  16  17  18  19  20  22  24  25  26 0
 3-21G
 ****
 31  33  36  37  38  39  40  41  42  43  44  45  46 0
 3-21G
 ****


