%nproc=1
%NoSave
%Mem=1900MB
#P OB98/GEN NMR

erre ene a

0 1
  C      710.256     -67.547    -350.692
  O      708.995     -67.157    -351.267
  P      707.628     -67.572    -350.524
  C      707.769     -65.938    -348.487
  O      707.790     -67.277    -348.957
  C      706.823     -65.818    -347.286
  O      707.239     -66.695    -346.215
  C      706.773     -64.429    -346.662
  O      705.997     -63.523    -347.437
  C      706.172     -64.731    -345.299
  O      704.736     -64.824    -345.377
  C      706.783     -66.109    -344.981
  N      707.867     -66.028    -343.996
  C      707.496     -65.705    -342.695
  O      706.338     -65.437    -342.369
  N      708.516     -65.659    -341.782
  C      709.844     -65.840    -342.046
  O      710.709     -65.771    -341.186
  C      710.179     -66.095    -343.455
  C      709.192     -66.171    -344.351
  O      707.698     -69.171    -350.570
  O      706.371     -67.082    -351.160
  H      704.539     -65.657    -345.842
  H      706.799     -69.540    -350.571
  H      708.269     -65.457    -340.823
  H      711.227     -66.224    -343.714
  H      709.425     -66.362    -345.391
  H      706.015     -66.786    -344.591
  H      706.401     -63.962    -344.557
  H      707.789     -64.043    -346.526
  H      705.820     -66.130    -347.608
  H      707.425     -65.278    -349.285
  H      708.790     -65.644    -348.205
  P      706.515     -62.003    -347.505
  C      707.329     -61.895    -349.985
  O      707.662     -62.004    -348.621
  O      707.287     -61.888    -346.107
  O      705.407     -61.020    -347.685
  H      707.709     -62.729    -345.844
  H      706.432     -61.283    -350.138
  H      707.153     -62.896    -350.390
  H      708.165     -61.437    -350.521
  H      711.055     -67.192    -351.309
  H      710.303     -68.614    -350.626
  H      710.347     -67.125    -349.713

 3  4  5  6  7  8  9  10  11  12  13  23  28  29  30  31  32 0
 6-311+G(2d,p)
 ****
 33  34 0
 6-311+G(2d,p)
 ****
 1  2  14  15  16  17  18  19  20  21  22  24  25  26 0
 3-21G
 ****
 27  35  36  37  38  39  40  41  42  43  44  45 0
 3-21G
 ****


