%nproc=1
%NoSave
%Mem=1900MB
#P OB98/GEN NMR

erre ene a

0 1
  C      321.776    -241.626     369.720
  O      320.691    -242.144     368.974
  P      319.637    -243.085     369.748
  C      321.246    -245.126     369.656
  O      320.485    -244.242     370.476
  C      320.752    -246.565     369.803
  O      321.407    -247.389     368.800
  C      321.029    -247.207     371.176
  O      319.928    -248.074     371.457
  C      322.299    -247.993     370.905
  O      322.587    -248.989     371.875
  C      322.004    -248.501     369.495
  N      324.058    -252.286     366.721
  C      322.802    -252.099     367.204
  N      322.334    -251.061     367.927
  C      323.298    -250.147     368.134
  C      324.614    -250.212     367.722
  C      324.987    -251.346     366.981
  N      326.274    -251.539     366.502
  N      325.319    -249.102     368.143
  C      324.435    -248.377     368.801
  N      323.195    -248.962     368.807
  O      318.898    -243.857     368.556
  O      318.668    -242.355     370.631
  H      323.554    -249.148     371.912
  H      317.947    -243.965     368.745
  H      322.086    -252.885     366.985
  H      324.648    -247.444     369.303
  H      321.284    -249.325     369.498
  H      323.152    -247.305     370.894
  H      321.124    -246.474     371.987
  H      319.676    -246.586     369.593
  H      322.291    -245.088     369.980
  H      326.483    -252.466     366.163
  H      326.995    -250.941     366.872
  H      321.194    -244.790     368.619
  P      319.567    -248.398     372.988
  C      320.441    -250.817     372.838
  O      320.629    -249.542     373.398
  O      318.232    -249.264     372.812
  O      319.434    -247.229     373.894
  H      318.352    -249.982     372.160
  H      321.276    -251.459     373.115
  H      320.390    -250.755     371.742
  H      319.510    -251.259     373.224
  H      322.391    -241.023     369.084
  H      322.356    -242.434     370.115
  H      321.402    -241.029     370.525

 3  4  5  6  7  8  9  10  11  12  22  25  29  30  31  32 0
 6-311+G(2d,p)
 ****
 33  36  37 0
 6-311+G(2d,p)
 ****
 1  2  13  14  15  16  17  18  19  20  21  23  24  26 0
 3-21G
 ****
 27  28  34  35  38  39  40  41  42  43  44  45  46  47  48 0
 3-21G
 ****


