%nproc=1
%NoSave
%Mem=1900MB
#P OB98/GEN NMR

erre ene a

0 1
  C      973.911    -261.823     218.696
  O      974.235    -263.196     218.561
  H      974.614    -261.367     219.396
  H      972.895    -261.719     219.092
  H      973.991    -261.320     217.727
  P      973.324    -264.053     217.556
  C      975.294    -264.286     215.860
  O      973.959    -263.851     216.098
  C      975.669    -264.079     214.384
  O      975.346    -262.699     214.012
  C      977.167    -264.278     214.090
  O      977.293    -264.720     212.734
  C      977.702    -262.855     214.210
  O      978.997    -262.751     213.663
  C      976.566    -262.101     213.515
  N      978.774    -257.629     212.355
  C      978.952    -258.879     211.861
  N      978.318    -260.016     212.218
  C      977.403    -259.776     213.166
  C      977.087    -258.563     213.752
  C      977.832    -257.452     213.301
  N      977.651    -256.178     213.813
  N      976.083    -258.704     214.688
  C      975.782    -260.001     214.659
  N      976.559    -260.685     213.770
  O      971.961    -263.211     217.493
  O      973.087    -265.473     217.951
  H      978.971    -262.933     212.690
  H      971.315    -263.577     218.129
  H      979.712    -258.971     211.089
  H      975.033    -260.479     215.278
  H      976.590    -262.247     212.419
  H      977.775    -262.559     215.257
  H      977.641    -265.001     214.756
  H      975.041    -264.732     213.764
  H      975.367    -265.346     216.111
  H      975.984    -263.713     216.496
  H      978.229    -255.434     213.458
  H      976.970    -256.028     214.538
  P      977.080    -266.283     212.395
  C      974.746    -265.926     211.261
  O      975.503    -266.579     212.265
  O      977.433    -266.983     213.808
  O      977.945    -266.834     211.304
  H      977.769    -267.880     213.650
  H      973.725    -266.241     211.323
  H      975.139    -266.177     210.298
  H      974.802    -264.867     211.404

 6  7  8  9  10  11  12  13  14  15  25  28  32  33  34  35 0
 6-311+G(2d,p)
 ****
 36  37  40 0
 6-311+G(2d,p)
 ****
 1  2  3  4  5  16  17  18  19  20  21  22  23  24 0
 3-21G
 ****
 26  27  29  30  31  38  39 41  42  43  44  45  46  47  48 0
 3-21G
 ****


