%nproc=1
%NoSave
%Mem=1900MB
#P OB98/GEN NMR

erre ene a

0 1
  C       68.526      46.335     -94.509
  O       69.414      45.422     -95.126
  P       69.911      44.125     -94.331
  C       71.624      45.650     -93.101
  O       71.386      44.443     -93.792
  C       73.049      46.160     -93.350
  O       73.232      47.368     -92.572
  C       74.156      45.208     -92.908
  O       75.371      45.591     -93.557
  C       74.253      45.509     -91.430
  O       75.497      45.093     -90.873
  C       73.982      47.035     -91.379
  N       73.220      47.410     -90.174
  C       73.938      47.525     -88.988
  O       75.161      47.403     -88.930
  N       73.193      47.700     -87.853
  C       71.831      47.721     -87.801
  O       71.185      47.569     -86.771
  C       71.147      47.836     -89.098
  C       71.860      47.651     -90.212
  O       70.153      43.063     -95.502
  O       68.959      43.614     -93.305
  H       75.511      44.108     -90.911
  H       69.373      42.484     -95.598
  H       73.703      47.639     -86.980
  H       70.079      48.005     -89.098
  H       71.373      47.678     -91.183
  H       74.917      47.608     -91.381
  H       73.458      44.970     -90.901
  H       73.942      44.152     -93.096
  H       73.163      46.419     -94.409
  H       71.451      45.495     -92.032
  H       70.911      46.418     -93.421
  P       76.000      44.578     -94.629
  C       77.143      43.059     -92.905
  O       77.329      43.981     -93.960
  O       76.161      45.110     -96.014
  O       74.991      43.333     -94.584
  H       75.097      42.795     -95.391
  H       77.991      42.368     -92.888
  H       76.220      42.486     -93.029
  H       77.109      43.601     -91.956
  H       68.307      47.133     -95.187
  H       68.980      46.733     -93.625
  H       67.620      45.830     -94.248

 3  4  5  6  7  8  9  10  11  12  13  23  28  29  30  31  32 0
 6-311+G(2d,p)
 ****
 33  34 0
 6-311+G(2d,p)
 ****
 1  2  14  15  16  17  18  19  20  21  22  24  25  26  27 0
 3-21G
 ****
 35  36  37  38  39  40  41  42  43  44  45 0
 3-21G
 ****


