%nproc=1
%NoSave
%Mem=1900MB
#P OB98/GEN NMR

erre ene a

0 1
  C      568.182     263.940    -348.312
  O      567.729     262.811    -347.555
  P      567.051     263.062    -346.129
  C      568.124     260.927    -345.171
  O      566.917     261.660    -345.354
  C      567.819     259.451    -344.882
  O      567.394     259.287    -343.494
  C      566.691     258.887    -345.757
  O      566.924     257.495    -346.038
  C      565.472     258.992    -344.859
  O      564.430     258.104    -345.283
  C      566.091     258.654    -343.492
  N      566.125     259.673    -338.473
  C      567.120     259.304    -339.319
  N      567.038     259.070    -340.644
  C      565.779     259.256    -341.095
  C      564.670     259.651    -340.353
  C      564.878     259.845    -338.967
  N      563.865     260.198    -338.103
  N      563.542     259.754    -341.160
  C      563.958     259.383    -342.350
  N      565.301     259.113    -342.372
  O      565.804     263.892    -346.147
  O      568.202     263.807    -345.296
  H      563.712     258.165    -344.635
  H      567.824     264.543    -344.784
  H      568.101     259.175    -338.879
  H      563.331     259.286    -343.227
  H      566.250     257.566    -343.373
  H      565.081     260.011    -344.872
  H      566.550     259.427    -346.705
  H      568.730     258.858    -344.997
  H      568.703     261.367    -344.349
  H      564.084     260.197    -337.116
  H      562.905     260.179    -338.434
  H      568.749     261.032    -346.062
  P      567.447     257.156    -347.518
  C      565.506     255.457    -347.988
  O      566.891     255.685    -347.857
  O      568.923     257.354    -347.688
  O      566.556     258.136    -348.427
  H      565.603     258.099    -348.261
  H      565.351     254.438    -348.339
  H      565.058     256.152    -348.693
  H      565.022     255.565    -347.006
  H      568.608     263.603    -349.234
  H      568.922     264.472    -347.751
  H      567.355     264.588    -348.516

 3  4  5  6  7  8  9  10  11  12  22  25  29  30  31  32 0
 6-311+G(2d,p)
 ****
 33  36  37 0
 6-311+G(2d,p)
 ****
 1  2  13  14  15  16  17  18  19  20  21  23  24  26 0
 3-21G
 ****
 27  28  34  35  38  39  40  41  42  43  44  45  46  47  48 0
 3-21G
 ****


