%nproc=1
%NoSave
%Mem=1900MB
#P OB98/GEN NMR

erre ene a

0 1
  C     -115.354     -15.037      41.528
  O     -115.687     -14.593      40.209
  P     -116.483     -15.620      39.265
  C     -115.718     -17.671      37.825
  O     -115.417     -16.747      38.861
  C     -114.467     -18.462      37.450
  O     -113.526     -17.621      36.738
  C     -113.697     -19.011      38.641
  O     -114.357     -20.128      39.215
  C     -112.352     -19.322      37.998
  O     -112.409     -20.575      37.300
  C     -112.206     -18.163      36.988
  N     -111.281     -17.129      37.433
  C     -110.042     -17.112      36.800
  O     -109.717     -17.925      35.935
  N     -109.175     -16.137      37.212
  C     -109.410     -15.218      38.192
  O     -108.597     -14.361      38.512
  C     -110.717     -15.318      38.859
  C     -111.580     -16.254      38.457
  O     -116.661     -14.746      37.940
  O     -117.751     -16.110      39.879
  H     -115.904     -14.162      37.765
  H     -111.569     -20.654      36.805
  H     -108.276     -16.100      36.756
  H     -110.928     -14.620      39.660
  H     -112.549     -16.344      38.939
  H     -111.848     -18.546      36.024
  H     -111.543     -19.391      38.732
  H     -113.574     -18.227      39.399
  H     -114.768     -19.281      36.785
  H     -116.083     -17.136      36.944
  H     -116.519     -18.334      38.164
  P     -114.781     -20.007      40.761
  C     -113.465     -20.062      43.018
  O     -113.437     -20.182      41.613
  O     -115.562     -21.387      40.977
  O     -115.586     -18.787      41.068
  H     -115.106     -22.147      40.582
  H     -112.574     -20.544      43.430
  H     -114.350     -20.540      43.444
  H     -113.452     -19.005      43.296
  H     -114.830     -14.260      42.044
  H     -114.733     -15.906      41.466
  H     -116.251     -15.277      42.061

 3  4  5  6  7  8  9  10  11  12  13  24  28  29  30  31  32 0
 6-311+G(2d,p)
 ****
 33  34 0
 6-311+G(2d,p)
 ****
 1  2  14  15  16  17  18  19  20  21  22  23  25  26  27 0
 3-21G
 ****
 35  36  37  38  39  40  41  42  43  44  45 0
 3-21G
 ****


