%nproc=1
%NoSave
%Mem=1900MB
#P OB98/GEN NMR

erre ene a

0 1
  C      131.434    -133.127     -28.303
  O      132.273    -132.027     -28.032
  P      132.833    -131.113     -29.224
  C      134.994    -132.508     -29.332
  O      133.860    -132.031     -30.049
  C      135.738    -133.551     -30.160
  O      134.919    -134.730     -30.374
  C      136.100    -133.089     -31.563
  O      137.040    -132.043     -31.680
  C      136.446    -134.409     -32.232
  O      137.774    -134.822     -31.915
  C      135.412    -135.363     -31.581
  N      134.328    -135.700     -32.499
  C      134.299    -137.014     -32.952
  O      135.121    -137.867     -32.620
  N      133.301    -137.321     -33.836
  C      132.378    -136.449     -34.338
  O      131.538    -136.781     -35.164
  C      132.468    -135.070     -33.836
  C      133.423    -134.761     -32.953
  O      133.381    -129.790     -28.807
  O      131.588    -131.015     -30.227
  H      137.938    -135.666     -32.377
  H      131.275    -131.870     -30.573
  H      133.269    -138.264     -34.188
  H      131.743    -134.356     -34.203
  H      133.510    -133.749     -32.570
  H      135.899    -136.296     -31.269
  H      136.380    -134.342     -33.323
  H      135.186    -132.715     -32.045
  H      136.621    -133.869     -29.599
  H      134.654    -132.969     -28.399
  H      135.644    -131.666     -29.074
  P      136.900    -130.845     -32.734
  C      138.418    -131.877     -34.566
  O      137.125    -131.440     -34.205
  O      137.596    -129.569     -32.394
  O      135.314    -130.592     -32.722
  H      135.140    -129.648     -32.900
  H      138.396    -132.206     -35.608
  H      138.725    -132.719     -33.939
  H      139.139    -131.059     -34.473
  H      131.168    -133.607     -27.385
  H      131.949    -133.822     -28.933
  H      130.548    -132.787     -28.797

 3  4  5  6  7  8  9  10  11  12  13  23  28  29  30  31  32 0
 6-311+G(2d,p)
 ****
 33  34 0
 6-311+G(2d,p)
 ****
 1  2  14  15  16  17  18  19  20  21  22  24  25  26  27 0
 3-21G
 ****
 35  36  37  38  39  40  41  42  43  44  45 0
 3-21G
 ****


