%nproc=1
%NoSave
%Mem=1900MB
#P OB98/GEN NMR

erre ene a

0 1
  C       15.699     113.691    -130.795
  O       15.397     113.789    -132.173
  H       16.722     113.322    -130.688
  H       15.021     112.982    -130.313
  H       15.627     114.667    -130.310
  P       14.019     114.480    -132.613
  C       12.556     112.479    -131.887
  O       12.870     113.850    -131.691
  C       11.308     112.088    -131.087
  O       11.655     112.071    -129.666
  C       10.119     113.059    -131.249
  O        8.923     112.285    -131.088
  C       10.345     113.987    -130.070
  O        9.241     114.820    -129.819
  C       10.720     112.949    -129.002
  N       11.303     113.491    -127.780
  C       10.487     113.571    -126.655
  O        9.311     113.214    -126.616
  N       11.074     114.094    -125.533
  C       12.366     114.521    -125.426
  O       12.844     114.952    -124.382
  C       13.175     114.417    -126.648
  C       12.616     113.913    -127.751
  O       13.730     114.472    -134.077
  O       14.148     115.972    -132.047
  H       14.381     116.580    -132.774
  H        8.981     115.267    -130.654
  H       10.500     114.153    -124.708
  H       14.200     114.757    -126.600
  H       13.192     113.814    -128.668
  H        9.842     112.346    -128.745
  H       11.183     114.655    -130.277
  H       10.103     113.555    -132.222
  H       11.022     111.064    -131.354
  H       13.411     111.880    -131.555
  H       12.388     112.299    -132.954
  P        7.927     111.926    -132.295
  C        5.809     113.161    -131.459
  O        6.854     113.115    -132.425
  O        7.314     110.570    -132.192
  O        8.813     112.059    -133.623
  H        8.442     111.486    -134.321
  H        5.172     113.996    -131.663
  H        6.231     113.265    -130.481
  H        5.239     112.257    -131.507

 6  7  8  9  10  11  12  13  14  15  16  27  31  32  33  34  35 0
 6-311+G(2d,p)
 ****
 36  37 0
 6-311+G(2d,p)
 ****
 1  2  3  4  5  17  18  19  20  21  22  23  24  25 0
 3-21G
 ****
 26  28  29  30  38  39  40  41  42  43  44  45 0
 3-21G
 ****


