%nproc=1
%NoSave
%Mem=1900MB
#P OB98/GEN NMR

erre ene a

0 1
  C      -65.587    -202.470    -147.663
  O      -64.523    -201.982    -146.870
  H      -65.209    -203.268    -148.305
  H      -65.986    -201.669    -148.291
  H      -66.380    -202.872    -147.026
  P      -64.877    -200.809    -145.835
  C      -63.071    -201.670    -144.174
  O      -64.437    -201.336    -144.386
  C      -62.921    -202.393    -142.839
  O      -63.438    -203.739    -142.951
  C      -61.476    -202.551    -142.384
  O      -60.955    -201.363    -141.816
  C      -61.606    -203.694    -141.390
  O      -62.022    -203.222    -140.102
  C      -62.701    -204.561    -142.018
  N      -63.224    -209.590    -142.716
  C      -63.977    -208.689    -142.048
  N      -63.775    -207.361    -141.919
  C      -62.681    -206.981    -142.599
  C      -61.819    -207.784    -143.328
  C      -62.128    -209.154    -143.377
  N      -61.351    -210.075    -144.037
  N      -60.783    -207.036    -143.850
  C      -61.018    -205.803    -143.452
  N      -62.154    -205.720    -142.697
  O      -66.476    -200.842    -145.784
  O      -64.360    -199.460    -146.205
  H      -62.859    -202.739    -140.245
  H      -66.835    -200.134    -146.351
  H      -64.849    -209.090    -141.540
  H      -60.396    -204.945    -143.675
  H      -63.417    -204.930    -141.274
  H      -60.654    -204.209    -141.263
  H      -60.851    -202.883    -143.222
  H      -63.512    -201.861    -142.083
  H      -62.473    -200.752    -144.157
  H      -62.729    -202.303    -144.998
  H      -61.594    -211.049    -143.973
  H      -60.469    -209.777    -144.435
  P      -59.958    -200.484    -142.711
  C      -61.182    -198.253    -142.139
  O      -60.750    -199.161    -143.145
  O      -59.831    -201.316    -144.073
  O      -58.626    -200.231    -142.089
  H      -58.925    -201.233    -144.428
  H      -61.691    -197.430    -142.596
  H      -60.333    -197.891    -141.597
  H      -61.847    -198.755    -141.467

 6  7  8  9  10  11  12  13  14  15  25  28  32  33  34  35 0
 6-311+G(2d,p)
 ****
 36  37  40 0
 6-311+G(2d,p)
 ****
 1  2  3  4  5  16  17  18  19  20  21  22  23  24 0
 3-21G
 ****
 26  27  29  30  31  38  39 41  42  43  44  45  46  47  48 0
 3-21G
 ****


