%nproc=1
%NoSave
%Mem=1900MB
#P OB98/GEN NMR

erre ene a

0 1
  C     1045.101      39.485    -202.113
  O     1045.381      38.536    -201.069
  P     1046.861      38.224    -200.557
  C     1047.499      36.211    -202.040
  O     1047.717      37.589    -201.760
  C     1047.580      35.917    -203.537
  O     1048.750      36.522    -204.122
  C     1047.665      34.445    -203.911
  O     1046.402      33.813    -203.779
  C     1048.188      34.528    -205.339
  O     1047.127      34.778    -206.269
  C     1049.141      35.734    -205.259
  N     1050.543      35.339    -205.169
  C     1051.230      35.183    -206.381
  O     1050.633      35.331    -207.455
  N     1052.561      34.855    -206.351
  C     1053.134      34.612    -205.211
  N     1054.451      34.288    -205.239
  C     1052.426      34.673    -203.921
  C     1051.146      35.034    -203.977
  O     1046.913      37.428    -199.290
  O     1047.548      39.656    -200.343
  H     1046.787      35.679    -206.065
  H     1048.193      39.596    -199.616
  H     1052.936      34.434    -203.000
  H     1050.555      35.113    -203.063
  H     1049.017      36.386    -206.135
  H     1048.676      33.601    -205.657
  H     1048.406      33.947    -203.274
  H     1046.689      36.381    -204.016
  H     1054.914      34.267    -206.145
  H     1046.498      35.938    -201.679
  H     1055.000      34.094    -204.418
  H     1048.239      35.611    -201.504
  P     1046.020      33.078    -202.402
  C     1046.373      30.694    -203.278
  O     1046.803      31.691    -202.364
  O     1044.562      32.997    -202.106
  O     1046.780      33.953    -201.291
  H     1046.259      33.929    -200.467
  H     1047.198      29.992    -203.441
  H     1046.096      31.135    -204.239
  H     1045.522      30.164    -202.850
  H     1044.046      39.526    -202.284
  H     1045.597      39.183    -203.012
  H     1045.452      40.452    -201.819

 3  4  5  6  7  8  9  10  11  12  13  23  27  28  29  30  32 0
 6-311+G(2d,p)
 ****
 34  35 0
 6-311+G(2d,p)
 ****
 1  2  14  15  16  17  18  19  20  21  22  24  25  26 0
 3-21G
 ****
 31  33  36  37  38  39  40  41  42  43  44  45  46 0
 3-21G
 ****


