%nproc=1
%NoSave
%Mem=1900MB
#P OB98/GEN NMR

erre ene a

0 1
  C     -356.920    -343.519     -14.078
  O     -356.133    -344.620     -14.479
  H     -356.783    -343.365     -13.006
  H     -357.976    -343.716     -14.272
  H     -356.607    -342.613     -14.608
  P     -356.201    -345.103     -16.008
  C     -357.042    -347.245     -17.180
  O     -357.159    -346.391     -16.046
  C     -357.925    -348.485     -17.001
  O     -357.283    -349.352     -16.034
  C     -359.329    -348.138     -16.476
  O     -360.374    -348.687     -17.280
  C     -359.265    -348.547     -15.007
  O     -360.511    -348.876     -14.437
  C     -358.235    -349.685     -15.009
  N     -357.570    -349.876     -13.722
  C     -358.240    -350.625     -12.756
  O     -359.340    -351.147     -12.909
  N     -357.581    -350.773     -11.559
  C     -356.365    -350.245     -11.240
  O     -355.826    -350.416     -10.152
  C     -355.721    -349.440     -12.291
  C     -356.341    -349.292     -13.460
  O     -354.884    -345.286     -16.686
  O     -357.084    -343.979     -16.733
  H     -360.912    -349.571     -15.000
  H     -356.501    -343.403     -17.269
  H     -358.047    -351.326     -10.861
  H     -354.758    -348.996     -12.062
  H     -355.895    -348.704     -14.258
  H     -358.714    -350.631     -15.276
  H     -358.859    -347.700     -14.432
  H     -359.510    -347.060     -16.537
  H     -357.972    -349.028     -17.951
  H     -355.991    -347.539     -17.271
  H     -357.344    -346.700     -18.082
  P     -361.537    -347.843     -17.974
  C     -363.515    -346.353     -17.081
  O     -362.598    -347.419     -16.855
  O     -362.087    -348.414     -19.241
  O     -360.821    -346.443     -18.343
  H     -361.257    -346.121     -19.158
  H     -364.135    -346.227     -16.218
  H     -364.126    -346.582     -17.929
  H     -362.973    -345.449     -17.265

 6  7  8  9  10  11  12  13  14  15  16  26  31  32  33  34  35 0
 6-311+G(2d,p)
 ****
 36  37 0
 6-311+G(2d,p)
 ****
 1  2  3  4  5  17  18  19  20  21  22  23  24  25 0
 3-21G
 ****
 27  28  29  30  38  39  40  41  42  43  44  45 0
 3-21G
 ****


