%nproc=1
%NoSave
%Mem=1900MB
#P OB98/GEN NMR

erre ene a

0 1
  C      190.766    -339.018    -777.026
  O      190.068    -339.976    -776.249
  H      190.658    -339.277    -778.083
  H      191.830    -339.014    -776.779
  H      190.346    -338.020    -776.863
  P      190.207    -339.901    -774.653
  C      190.563    -342.464    -774.734
  O      189.873    -341.381    -774.123
  C      189.873    -343.784    -774.390
  O      189.712    -343.907    -772.961
  C      188.471    -343.901    -774.977
  O      188.525    -344.178    -776.359
  C      187.885    -344.988    -774.105
  O      188.313    -346.282    -774.539
  C      188.494    -344.641    -772.721
  N      187.573    -343.874    -771.889
  C      186.535    -344.607    -771.288
  O      186.435    -345.818    -771.477
  N      185.623    -343.924    -770.514
  C      185.753    -342.646    -770.327
  N      184.817    -342.039    -769.547
  C      186.836    -341.842    -770.929
  C      187.698    -342.516    -771.691
  O      189.449    -338.811    -773.957
  O      191.788    -339.775    -774.416
  H      187.858    -346.445    -775.397
  H      192.057    -338.842    -774.405
  H      186.904    -340.782    -770.748
  H      188.529    -342.005    -772.164
  H      188.765    -345.551    -772.183
  H      186.795    -344.976    -774.125
  H      187.903    -342.975    -774.789
  H      190.513    -344.603    -774.733
  H      184.086    -342.622    -769.172
  H      191.586    -342.459    -774.342
  H      184.857    -341.069    -769.272
  H      190.609    -342.336    -775.816
  P      188.349    -343.007    -777.440
  C      186.205    -344.010    -778.484
  O      187.578    -343.681    -778.684
  O      189.591    -342.255    -777.787
  O      187.208    -342.081    -776.786
  H      187.567    -341.550    -776.029
  H      185.809    -344.448    -779.377
  H      185.656    -343.122    -778.248
  H      186.119    -344.707    -777.677

 6  7  8  9  10  11  12  13  14  15  16  26  30  31  32  33  35 0
 6-311+G(2d,p)
 ****
 37  38 0
 6-311+G(2d,p)
 ****
 1  2  3  4  5  17  18  19  20  21  22  23  24  25 0
 3-21G
 ****
 27  28  29  34  36  39  40  41  42  43  44  45  46 0
 3-21G
 ****


