%nproc=1
%NoSave
%Mem=1900MB
#P OB98/GEN NMR

erre ene a

0 1
  C       29.143     722.810     160.155
  O       29.908     721.628     160.347
  P       31.385     721.694     160.959
  C       32.321     723.006     158.884
  O       32.413     721.901     159.760
  C       33.674     723.215     158.194
  O       34.690     723.520     159.181
  C       34.114     721.965     157.438
  O       33.738     722.053     156.066
  C       35.617     721.961     157.641
  O       36.259     722.863     156.722
  C       35.737     722.509     159.084
  N       35.552     721.561     160.208
  C       36.505     720.569     160.430
  O       37.519     720.435     159.752
  N       36.224     719.692     161.448
  C       35.135     719.754     162.272
  O       34.774     718.846     163.010
  C       34.326     720.970     162.166
  C       34.553     721.790     161.142
  O       31.646     720.183     161.416
  O       31.570     722.665     162.083
  H       35.862     723.749     156.854
  H       31.489     720.082     162.375
  H       36.833     718.889     161.520
  H       33.537     721.131     162.892
  H       33.941     722.682     161.016
  H       36.695     723.010     159.241
  H       36.038     720.975     157.446
  H       33.699     721.068     157.898
  H       33.604     724.074     157.514
  H       32.031     723.897     159.440
  H       31.543     722.821     158.136
  P       32.757     720.952     155.447
  C       34.585     719.215     155.900
  O       33.721     719.777     154.936
  O       31.773     721.457     154.443
  O       32.039     720.334     156.736
  H       31.151     720.755     156.856
  H       35.051     718.322     155.478
  H       34.032     718.934     156.801
  H       35.376     719.934     156.149
  H       28.191     722.555     159.739
  H       29.661     723.465     159.486
  H       29.001     723.300     161.096

 3  4  5  6  7  8  9  10  11  12  13  23  28  29  30  31  32 0
 6-311+G(2d,p)
 ****
 33  34 0
 6-311+G(2d,p)
 ****
 1  2  14  15  16  17  18  19  20  21  22  24  25  26  27 0
 3-21G
 ****
 35  36  37  38  39  40  41  42  43  44  45 0
 3-21G
 ****


