%nproc=1
%NoSave
%Mem=1900MB
#P OB98/GEN NMR

erre ene a

0 1
  C     -295.946    -110.206     -69.907
  O     -296.893    -110.447     -68.885
  P     -298.216    -111.294     -69.192
  C     -300.135    -112.251     -67.776
  O     -298.753    -111.908     -67.813
  C     -300.513    -112.798     -66.401
  O     -299.794    -114.020     -66.119
  C     -300.174    -111.866     -65.249
  O     -301.049    -110.756     -65.187
  C     -300.260    -112.822     -64.066
  O     -301.624    -113.014     -63.663
  C     -299.694    -114.123     -64.678
  N     -298.327    -114.385     -64.257
  C     -298.106    -114.426     -62.876
  O     -299.018    -114.168     -62.091
  N     -296.851    -114.751     -62.424
  C     -295.879    -114.895     -63.269
  N     -294.673    -115.275     -62.768
  C     -296.040    -114.698     -64.725
  C     -297.281    -114.470     -65.146
  O     -298.098    -112.276     -70.310
  O     -299.317    -110.181     -69.533
  H     -299.759    -110.421     -70.371
  H     -302.096    -113.369     -64.443
  H     -295.183    -114.763     -65.380
  H     -297.497    -114.335     -66.201
  H     -300.321    -114.977     -64.395
  H     -299.712    -112.457     -63.193
  H     -299.141    -111.510     -65.354
  H     -301.587    -113.024     -66.409
  H     -294.606    -115.417     -61.768
  H     -300.327    -113.009     -68.540
  H     -293.961    -115.721     -63.341
  H     -300.732    -111.364     -68.014
  P     -300.549    -109.485     -64.345
  C     -301.004    -106.936     -64.365
  O     -301.297    -108.197     -64.932
  O     -299.032    -109.297     -64.826
  O     -300.632    -109.648     -62.863
  H     -298.485    -109.002     -64.075
  H     -301.301    -106.157     -65.072
  H     -299.937    -106.830     -64.153
  H     -301.575    -106.810     -63.441
  H     -295.136    -109.627     -69.514
  H     -296.413    -109.669     -70.706
  H     -295.572    -111.139     -70.274

 3  4  5  6  7  8  9  10  11  12  13  24  27  28  29  30  32 0
 6-311+G(2d,p)
 ****
 34  35 0
 6-311+G(2d,p)
 ****
 1  2  14  15  16  17  18  19  20  21  22  23  25  26 0
 3-21G
 ****
 31  33  36  37  38  39  40  41  42  43  44  45  46 0
 3-21G
 ****


