%nproc=1
%NoSave
%Mem=1900MB
#P OB98/GEN NMR

erre ene a

0 1
  C      -35.097    -241.568     337.173
  O      -34.715    -240.441     337.937
  H      -35.455    -241.226     336.198
  H      -35.907    -242.105     337.677
  H      -34.244    -242.236     337.024
  P      -34.001    -240.726     339.341
  C      -35.785    -239.686     340.966
  O      -35.160    -240.854     340.448
  C      -36.787    -240.069     342.050
  O      -37.791    -240.973     341.541
  C      -36.175    -240.828     343.216
  O      -35.370    -240.010     344.037
  C      -37.432    -241.339     343.901
  O      -38.049    -240.314     344.691
  C      -38.316    -241.701     342.681
  N      -38.368    -243.134     342.433
  C      -39.463    -243.813     342.991
  O      -40.311    -243.195     343.633
  N      -39.546    -245.173     342.827
  C      -38.638    -245.801     342.146
  N      -38.772    -247.147     342.031
  C      -37.485    -245.121     341.523
  C      -37.411    -243.803     341.708
  O      -33.335    -239.313     339.689
  O      -33.048    -241.877     339.349
  H      -38.831    -240.724     345.112
  H      -33.962    -238.570     339.666
  H      -36.753    -245.684     340.955
  H      -36.595    -243.231     341.283
  H      -39.347    -241.345     342.837
  H      -37.223    -242.173     344.576
  H      -35.613    -241.695     342.847
  H      -37.291    -239.153     342.389
  H      -39.565    -247.581     342.490
  H      -36.278    -239.122     340.166
  H      -38.111    -247.743     341.553
  H      -34.999    -239.049     341.385
  P      -34.505    -240.651     345.227
  C      -35.741    -239.331     347.058
  O      -35.444    -240.619     346.531
  O      -33.152    -240.054     345.422
  O      -34.481    -242.213     344.866
  H      -35.358    -242.632     344.816
  H      -36.369    -239.434     347.918
  H      -36.246    -238.750     346.315
  H      -34.831    -238.841     347.336

 6  7  8  9  10  11  12  13  14  15  16  26  30  31  32  33  35 0
 6-311+G(2d,p)
 ****
 37  38 0
 6-311+G(2d,p)
 ****
 1  2  3  4  5  17  18  19  20  21  22  23  24  25 0
 3-21G
 ****
 27  28  29  34  36  39  40  41  42  43  44  45  46 0
 3-21G
 ****


