%nproc=1
%NoSave
%Mem=1900MB
#P OB98/GEN NMR

erre ene a

0 1
  C     -245.789      35.746     129.298
  O     -245.782      34.695     130.242
  H     -246.701      36.332     129.434
  H     -245.786      35.330     128.285
  H     -244.926      36.402     129.429
  P     -244.416      33.906     130.508
  C     -243.128      35.417     132.155
  O     -243.941      34.265     131.999
  C     -243.153      35.916     133.607
  O     -244.510      36.266     133.975
  C     -242.702      34.806     134.561
  O     -242.094      35.325     135.742
  C     -244.015      34.131     134.933
  O     -243.941      33.403     136.156
  C     -244.959      35.332     134.974
  N     -249.447      34.026     137.002
  C     -248.221      34.168     137.619
  N     -248.181      33.905     138.944
  N     -247.130      34.518     136.985
  C     -247.307      34.674     135.651
  C     -248.468      34.537     134.924
  C     -249.675      34.189     135.641
  O     -250.789      34.031     135.144
  N     -248.250      34.758     133.585
  C     -246.961      35.020     133.501
  N     -246.347      34.995     134.731
  O     -243.345      34.685     129.604
  O     -244.441      32.442     130.187
  H     -244.816      33.001     136.313
  H     -242.602      34.098     129.374
  H     -250.260      33.770     137.538
  H     -246.428      35.237     132.585
  H     -244.909      35.829     135.952
  H     -244.269      33.415     134.144
  H     -248.943      33.466     139.432
  H     -242.015      34.109     134.084
  H     -247.255      33.719     139.343
  H     -242.551      36.828     133.704
  H     -243.528      36.189     131.488
  H     -242.103      35.207     131.840
  P     -240.955      34.439     136.439
  C     -239.094      35.731     135.111
  O     -239.579      35.258     136.354
  O     -240.752      33.224     135.422
  O     -241.310      33.973     137.811
  H     -241.158      32.410     135.780
  H     -238.170      36.249     135.262
  H     -239.810      36.398     134.679
  H     -238.935      34.903     134.452

 6  7  8  9  10  11  12  13  14  15  26  29  33  34 0
 6-311+G(2d,p)
 ****
 36  38  39  40  41 0
 6-311+G(2d,p)
 ****
 1  2  3  4  5  16  17  18  19  20  21  22  23  24  25 0
 3-21G
 ****
 27  28  30  31  32  35  37  42  43  44  45  46  47 0
 3-21G
 ****
 48  49 0
 3-21G
 ****


