%nproc=1
%NoSave
%Mem=1900MB
#P OB98/GEN NMR

erre ene a

0 1
  C      -17.829    -217.431    -161.880
  O      -16.722    -218.062    -161.232
  P      -15.735    -217.125    -160.376
  C      -14.453    -218.797    -158.828
  O      -14.461    -218.037    -160.024
  C      -15.230    -220.106    -159.009
  O      -14.698    -220.841    -160.151
  C      -15.188    -221.039    -157.794
  O      -16.478    -221.663    -157.704
  C      -14.137    -222.062    -158.183
  O      -14.276    -223.274    -157.459
  C      -14.396    -222.173    -159.689
  N      -13.268    -222.751    -160.416
  C      -13.553    -223.774    -161.311
  O      -14.678    -224.250    -161.445
  N      -12.488    -224.269    -162.013
  C      -11.183    -223.901    -161.853
  O      -10.266    -224.377    -162.510
  C      -10.928    -222.893    -160.812
  C      -11.967    -222.375    -160.151
  O      -16.532    -217.004    -158.998
  O      -15.431    -215.831    -161.052
  H      -16.995    -217.821    -158.743
  H      -15.152    -223.666    -157.656
  H      -12.678    -224.992    -162.691
  H       -9.901    -222.618    -160.614
  H      -11.813    -221.649    -159.364
  H      -15.282    -222.791    -159.880
  H      -13.136    -221.657    -157.993
  H      -14.964    -220.516    -156.862
  H      -16.270    -219.851    -159.245
  H      -14.914    -218.222    -158.020
  H      -13.417    -218.989    -158.530
  P      -17.526    -221.089    -156.626
  C      -19.610    -221.670    -158.099
  O      -18.920    -221.836    -156.881
  O      -17.784    -219.629    -157.236
  O      -17.028    -221.049    -155.219
  H      -17.954    -219.642    -158.192
  H      -20.392    -222.432    -158.166
  H      -18.939    -221.789    -158.953
  H      -20.078    -220.683    -158.130
  H      -18.398    -218.166    -162.410
  H      -17.468    -216.696    -162.568
  H      -18.450    -216.959    -161.147

 3  4  5  6  7  8  9  10  11  12  13  24  28  29  30  31  32 0
 6-311+G(2d,p)
 ****
 33  34 0
 6-311+G(2d,p)
 ****
 1  2  14  15  16  17  18  19  20  21  22  23  25  26  27 0
 3-21G
 ****
 35  36  37  38  39  40  41  42  43  44  45 0
 3-21G
 ****


