%nproc=1
%NoSave
%Mem=1900MB
#P OB98/GEN NMR

erre ene a

0 1
  C      457.432    -918.136     -71.806
  O      457.504    -919.243     -72.700
  P      456.189    -919.815     -73.399
  C      457.326    -920.016     -75.762
  O      456.276    -919.501     -74.953
  C      457.859    -918.895     -76.671
  O      458.355    -917.806     -75.891
  C      458.982    -919.387     -77.576
  O      458.475    -919.813     -78.830
  C      459.891    -918.188     -77.641
  O      459.406    -917.245     -78.615
  C      459.771    -917.594     -76.217
  N      460.574    -918.192     -75.142
  C      461.146    -917.351     -74.176
  O      460.979    -916.127     -74.154
  N      461.923    -917.973     -73.235
  C      462.121    -919.327     -73.133
  O      463.020    -919.845     -72.436
  C      461.295    -920.152     -74.004
  C      460.593    -919.573     -74.972
  O      455.035    -918.811     -72.881
  O      455.865    -921.246     -73.097
  H      459.241    -917.762     -79.445
  H      454.563    -919.199     -72.148
  H      462.436    -917.370     -72.608
  H      461.328    -921.235     -73.856
  H      459.990    -920.170     -75.651
  H      459.944    -916.521     -76.225
  H      460.907    -918.483     -77.957
  H      459.518    -920.220     -77.086
  H      457.019    -918.520     -77.279
  H      456.971    -920.863     -76.361
  H      458.130    -920.397     -75.115
  P      458.622    -921.344     -79.278
  C      456.173    -921.312     -80.053
  O      457.127    -921.942     -79.191
  O      459.672    -922.121     -78.560
  O      458.931    -921.235     -80.845
  H      459.914    -921.314     -80.994
  H      455.263    -921.908     -80.053
  H      456.545    -921.226     -81.068
  H      455.930    -920.307     -79.657
  H      458.412    -917.905     -71.445
  H      456.797    -918.384     -70.981
  H      457.032    -917.287     -72.321

 3  4  5  6  7  8  9  10  11  12  13  23  28  29  30  31  32 0
 6-311+G(2d,p)
 ****
 33  34 0
 6-311+G(2d,p)
 ****
 1  2  14  15  16  17  18  19  20  21  22  24  25  26  27 0
 3-21G
 ****
 35  36  37  38  39  40  41  42  43  44  45 0
 3-21G
 ****


