%nproc=1
%NoSave
%Mem=1900MB
#P OB98/GEN NMR

erre ene a

0 1
  C      356.181    -889.500    -272.761
  O      356.326    -890.900    -272.891
  H      356.195    -889.050    -273.758
  H      357.004    -889.070    -272.176
  H      355.229    -889.260    -272.275
  P      356.436    -891.740    -271.529
  C      358.949    -892.310    -271.923
  O      357.623    -892.800    -271.741
  C      359.815    -893.400    -272.551
  O      359.764    -894.600    -271.733
  C      359.357    -893.830    -273.937
  O      359.756    -892.930    -274.956
  C      360.044    -895.180    -274.061
  O      361.405    -895.040    -274.521
  C      359.992    -895.720    -272.622
  N      358.976    -896.760    -272.473
  C      359.441    -898.070    -272.485
  O      360.640    -898.360    -272.636
  N      358.493    -899.050    -272.387
  C      357.147    -898.840    -272.311
  O      356.339    -899.770    -272.275
  C      356.702    -897.440    -272.308
  C      357.628    -896.480    -272.385
  O      355.111    -892.640    -271.542
  O      356.545    -890.930    -270.287
  H      354.470    -892.300    -270.900
  H      361.346    -894.480    -275.320
  H      358.816    -900.000    -272.400
  H      355.631    -897.240    -272.264
  H      357.323    -895.430    -272.405
  H      360.967    -896.150    -272.344
  H      359.527    -895.820    -274.771
  H      358.264    -893.990    -273.942
  H      360.850    -893.050    -272.584
  H      359.373    -892.040    -270.945
  H      358.918    -891.410    -272.547
  P      358.643    -892.470    -276.025
  C      359.753    -893.340    -278.249
  O      359.428    -892.240    -277.406
  O      358.312    -891.000    -275.495
  O      357.465    -893.400    -276.089
  H      359.071    -890.600    -275.018
  H      360.271    -892.985    -279.115
  H      358.854    -893.836    -278.550
  H      360.378    -894.026    -277.716

 6  7  8  9  10  11  12  13  14  15  16  27  31  32  33  34  35 0
 6-311+G(2d,p)
 ****
 36  37 0
 6-311+G(2d,p)
 ****
 1  2  3  4  5  17  18  19  20  21  22  23  24  25 0
 3-21G
 ****
 26  28  29  30  38  39  40  41  42  43  44  45 0
 3-21G
 ****


