%nproc=1
%NoSave
%Mem=1900MB
#P OB98/GEN NMR

erre ene a

0 1
  C     1521.592     217.743     649.659
  O     1520.315     217.420     650.195
  P     1519.117     218.453     650.161
  C     1517.583     217.105     648.495
  O     1518.323     218.269     648.787
  C     1516.080     217.471     648.431
  O     1515.809     218.305     647.288
  C     1515.202     216.222     648.333
  O     1514.757     215.811     649.628
  C     1514.062     216.687     647.421
  O     1513.099     217.439     648.181
  C     1514.826     217.626     646.454
  N     1515.547     217.035     645.298
  C     1515.864     217.837     644.209
  O     1515.602     219.035     644.143
  N     1516.448     217.178     643.134
  C     1516.799     215.853     643.100
  O     1517.109     215.262     642.075
  C     1516.689     215.127     644.373
  C     1516.037     215.748     645.391
  O     1519.849     219.856     649.970
  O     1518.202     218.452     651.349
  H     1513.093     217.080     649.068
  H     1519.928     220.332     650.826
  H     1516.568     217.741     642.294
  H     1517.088     214.133     644.428
  H     1515.929     215.215     646.324
  H     1514.155     218.405     646.056
  H     1513.550     215.833     646.985
  H     1515.747     215.400     647.822
  H     1515.826     218.030     649.332
  H     1517.752     216.365     649.274
  H     1517.896     216.670     647.529
  P     1514.681     214.259     649.970
  C     1516.541     214.520     651.742
  O     1516.163     213.855     650.513
  O     1514.140     213.379     648.898
  O     1513.745     214.228     651.283
  H     1512.844     214.015     651.030
  H     1517.488     214.024     652.067
  H     1515.781     214.420     652.487
  H     1516.752     215.575     651.509
  H     1522.252     216.910     649.784
  H     1521.990     218.593     650.173
  H     1521.495     217.969     648.618

 3  4  5  6  7  8  9  10  11  12  13  23  28  29  30  31  32 0
 6-311+G(2d,p)
 ****
 33  34 0
 6-311+G(2d,p)
 ****
 1  2  14  15  16  17  18  19  20  21  22  24  25  26  27 0
 3-21G
 ****
 35  36  37  38  39  40  41  42  43  44  45 0
 3-21G
 ****


