%nproc=1
%NoSave
%Mem=1900MB
#P OB98/GEN NMR

erre ene a

0 1
  C      221.288      98.951      40.854
  O      220.553      98.892      42.078
  P      219.233      97.974      42.079
  C      217.553      99.764      42.897
  O      217.956      98.909      41.839
  C      216.063     100.119      42.816
  O      215.584     100.651      44.079
  C      215.751     101.177      41.747
  O      214.453     100.863      41.214
  C      215.656     102.456      42.535
  O      214.921     103.457      41.831
  C      215.003     101.949      43.831
  N      215.199     102.852      44.966
  C      214.090     103.606      45.374
  O      213.032     103.548      44.738
  N      214.214     104.438      46.460
  C      215.358     104.547      47.058
  N      215.419     105.393      48.128
  C      216.564     103.818      46.629
  C      216.409     102.993      45.593
  O      219.097      97.523      43.612
  O      219.335      96.784      41.172
  H      215.334     103.564      40.942
  H      218.978      96.556      43.666
  H      217.510     103.960      47.148
  H      217.236     102.415      45.208
  H      213.924     101.810      43.694
  H      216.668     102.850      42.744
  H      216.483     101.200      40.931
  H      215.505      99.202      42.608
  H      214.565     105.869      48.399
  H      218.143     100.687      42.871
  H      216.257     105.556      48.664
  H      217.784      99.278      43.855
  P      214.368     100.020      39.852
  C      213.849     102.123      38.464
  O      214.761     101.063      38.697
  O      212.778      99.903      39.645
  O      215.022      98.680      39.806
  H      212.583      99.339      38.879
  H      214.292     102.816      37.752
  H      213.643     102.658      39.395
  H      212.919     101.726      38.047
  H      222.138      99.589      40.979
  H      220.661      99.341      40.080
  H      221.616      97.968      40.587

 3  4  5  6  7  8  9  10  11  12  13  21  23  27  28  29  30  32 0
 6-311+G(2d,p)
 ****
 34  35 0
 6-311+G(2d,p)
 ****
 1  2  14  15  16  17  18  19  20  22  24  25  26 0
 3-21G
 ****
 31  33  36  37  38  39  40  41  42  43  44  45  46 0
 3-21G
 ****


