%nproc=1
%NoSave
%Mem=1900MB
#P OB98/GEN NMR

erre ene a

0 1
  C      609.904     135.331     675.045
  O      609.734     135.902     673.759
  H      609.001     134.775     675.302
  H      610.067     136.114     675.789
  H      610.757     134.644     675.035
  P      610.916     136.855     673.237
  C      609.228     138.799     672.807
  O      610.362     138.339     673.530
  C      609.456     140.236     672.338
  O      609.687     141.110     673.463
  C      610.680     140.414     671.438
  O      610.461     139.985     670.108
  C      610.854     141.914     671.531
  O      609.841     142.573     670.738
  C      610.612     142.146     673.042
  N      611.848     142.087     673.823
  C      612.474     143.309     674.087
  O      612.014     144.370     673.664
  N      613.659     143.308     674.798
  C      614.152     142.185     675.236
  N      615.317     142.241     675.928
  C      613.507     140.883     674.996
  C      612.377     140.906     674.294
  O      610.798     136.751     671.644
  O      612.274     136.574     673.778
  H      609.911     143.531     670.940
  H      611.390     137.418     671.215
  H      613.962     139.971     675.368
  H      611.847     139.986     674.082
  H      610.128     143.114     673.217
  H      611.818     142.267     671.162
  H      611.569     139.929     671.858
  H      608.539     140.571     671.839
  H      615.765     143.151     676.023
  H      608.356     138.760     673.479
  H      615.853     141.422     676.171
  H      609.042     138.156     671.941
  P      611.756     139.681     669.204
  C      611.670     141.634     667.473
  O      612.276     141.088     668.649
  O      611.143     138.978     667.903
  O      612.790     138.830     669.866
  H      611.753     138.302     667.554
  H      612.129     142.571     667.237
  H      610.625     141.783     667.647
  H      611.803     140.956     666.656

 6  7  8  9  10  11  12  13  14  15  16  26  30  31  32  33  35 0
 6-311+G(2d,p)
 ****
 37  38 0
 6-311+G(2d,p)
 ****
 1  2  3  4  5  17  18  19  20  21  22  23  24  25 0
 3-21G
 ****
 27  28  29  34  36  39  40  41  42  43  44  45  46 0
 3-21G
 ****


