%nproc=1
%NoSave
%Mem=1900MB
#P OB98/GEN NMR

erre ene a

0 1
  C     -501.594     -67.504    -423.964
  O     -502.168     -66.732    -425.026
  P     -503.196     -65.564    -424.622
  C     -504.985     -66.360    -426.343
  O     -504.171     -65.281    -425.868
  C     -505.500     -66.087    -427.758
  O     -506.293     -64.863    -427.786
  C     -504.381     -65.907    -428.800
  O     -504.870     -66.354    -430.078
  C     -504.211     -64.404    -428.849
  O     -503.541     -63.989    -430.041
  C     -505.669     -63.947    -428.729
  N     -507.859     -59.504    -429.640
  C     -507.924     -60.684    -430.352
  N     -508.718     -60.703    -431.445
  N     -507.267     -61.779    -430.012
  C     -506.545     -61.617    -428.871
  C     -506.399     -60.502    -428.098
  C     -507.107     -59.290    -428.496
  O     -507.081     -58.222    -427.911
  N     -505.555     -60.720    -427.037
  C     -505.192     -61.996    -427.183
  N     -505.788     -62.588    -428.263
  O     -502.266     -64.265    -424.577
  O     -503.880     -65.787    -423.301
  H     -503.622     -63.003    -430.102
  H     -502.132     -63.985    -423.658
  H     -508.387     -58.694    -429.955
  H     -504.494     -62.522    -426.538
  H     -506.210     -64.016    -429.685
  H     -503.618     -64.061    -427.991
  H     -509.299     -59.919    -431.730
  H     -503.456     -66.434    -428.569
  H     -508.818     -61.567    -431.956
  H     -506.156     -66.912    -428.061
  H     -505.836     -66.507    -425.671
  H     -504.398     -67.290    -426.304
  P     -504.259     -67.730    -430.642
  C     -503.748     -67.072    -433.108
  O     -504.598     -67.763    -432.211
  O     -505.227     -68.857    -430.031
  O     -502.830     -67.971    -430.283
  H     -504.761     -69.713    -429.978
  H     -503.120     -67.804    -433.622
  H     -503.102     -66.350    -432.586
  H     -504.358     -66.552    -433.848
  H     -500.934     -68.240    -424.374
  H     -502.373     -67.990    -423.415
  H     -501.046     -66.859    -423.310

 3  4  5  6  7  8  9  10  11  12  23  26  30  31 0
 6-311+G(2d,p)
 ****
 33  35  36  37  38 0
 6-311+G(2d,p)
 ****
 1  2  13  14  15  16  17  18  19  20  21  22  24  25 0
 3-21G
 ****
 27  28  29  32  34  39  40  41  42  43  44  45  46  47  48  49 0
 3-21G
 ****


