%nproc=1
%NoSave
%Mem=1900MB
#P OB98/GEN NMR

erre ene a

0 1
  C      164.902    -870.107     -21.084
  O      165.085    -869.084     -22.075
  P      165.950    -867.807     -21.625
  C      167.383    -867.807     -23.796
  O      166.478    -867.088     -22.954
  C      167.662    -867.057     -25.105
  O      166.436    -866.995     -25.891
  C      168.157    -865.613     -24.941
  O      169.126    -865.343     -25.944
  C      166.918    -864.773     -25.245
  O      167.257    -863.451     -25.650
  C      166.285    -865.644     -26.328
  N      162.963    -862.723     -28.822
  C      164.331    -862.823     -28.959
  N      164.912    -861.996     -29.875
  N      165.084    -863.636     -28.271
  C      164.370    -864.416     -27.399
  C      163.015    -864.407     -27.168
  C      162.206    -863.475     -27.922
  O      161.002    -863.304     -27.811
  N      162.666    -865.335     -26.229
  C      163.816    -865.895     -25.866
  N      164.873    -865.349     -26.543
  O      167.261    -868.470     -20.986
  O      165.253    -866.910     -20.638
  H      167.787    -863.078     -24.920
  H      167.387    -868.146     -20.066
  H      162.438    -862.059     -29.373
  H      163.927    -866.660     -25.106
  H      166.801    -865.515     -27.287
  H      166.303    -864.729     -24.348
  H      164.386    -861.398     -30.490
  H      168.585    -865.398     -23.951
  H      165.912    -862.091     -30.030
  H      168.393    -867.652     -25.679
  H      166.943    -868.783     -24.026
  H      168.316    -867.972     -23.245
  P      170.447    -864.530     -25.476
  C      171.936    -866.447     -26.477
  O      171.622    -865.047     -26.450
  O      170.808    -865.201     -24.072
  O      170.261    -863.067     -25.391
  H      171.281    -864.578     -23.499
  H      171.177    -867.052     -25.974
  H      172.912    -866.597     -25.985
  H      172.011    -866.760     -27.518
  H      164.314    -870.901     -21.495
  H      164.399    -869.695     -20.234
  H      165.856    -870.488     -20.784

 3  4  5  6  7  8  9  10  11  12  23  26  30  31  33  0
 6-311+G(2d,p)
 ****
 35  36  37  38 0
 6-311+G(2d,p)
 ****
 1  2  13  14  15  16  17  18  19  20  21  22  24  25  27  28  29 0
 3-21G
 ****
 32  34  39  40  41  42  43  44  45  46  47  48  49 0
 3-21G
 ****


