%nproc=1
%NoSave
%Mem=1900MB
#P OB98/GEN NMR

erre ene a

0 1
  C      204.895      52.535     -28.204
  O      203.908      53.100     -27.366
  H      204.517      51.589     -28.599
  H      205.808      52.336     -27.636
  H      205.113      53.201     -29.044
  P      204.221      54.504     -26.653
  C      204.494      54.415     -24.075
  O      205.062      54.099     -25.340
  C      203.676      53.237     -23.554
  O      204.461      52.020     -23.537
  C      203.178      53.388     -22.121
  O      202.106      54.302     -21.979
  C      202.755      51.955     -21.840
  O      201.505      51.682     -22.502
  C      203.918      51.171     -22.486
  N      204.960      50.812     -21.527
  C      204.695      49.723     -20.683
  O      203.628      49.119     -20.761
  N      205.640      49.367     -19.748
  C      206.736      50.053     -19.643
  N      207.634      49.654     -18.690
  C      207.048      51.217     -20.494
  C      206.129      51.537     -21.403
  O      203.041      55.394     -26.413
  O      205.352      55.175     -27.567
  H      200.856      52.328     -22.164
  H      205.576      56.054     -27.172
  H      207.966      51.771     -20.347
  H      206.286      52.384     -22.064
  H      203.550      50.253     -22.968
  H      202.608      51.749     -20.777
  H      204.005      53.644     -21.443
  H      202.845      53.079     -24.254
  H      207.392      48.853     -18.123
  H      203.868      55.306     -24.193
  H      208.477      50.173     -18.491
  H      205.286      54.628     -23.356
  P      201.984      55.071     -20.570
  C      200.026      54.147     -19.097
  O      201.371      54.006     -19.536
  O      200.789      56.102     -20.824
  O      203.236      55.743     -20.095
  H      201.136      56.993     -21.029
  H      199.788      53.356     -18.417
  H      199.369      54.102     -19.940
  H      199.909      55.089     -18.603

 6  7  8  9  10  11  12  13  14  15  16  26  30  31  32  33  35 0
 6-311+G(2d,p)
 ****
 37  38 0
 6-311+G(2d,p)
 ****
 1  2  3  4  5  17  18  19  20  21  22  23  24  25 0
 3-21G
 ****
 27  28  29  34  36  39  40  41  42  43  44  45  46 0
 3-21G
 ****


