%nproc=1
%NoSave
%Mem=1900MB
#P OB98/GEN NMR

erre ene a

0 1
  C      -19.521    -189.523    -304.574
  O      -20.807    -188.950    -304.706
  H      -19.057    -189.146    -303.663
  H      -18.903    -189.237    -305.431
  H      -19.587    -190.615    -304.508
  P      -21.792    -189.613    -305.786
  C      -23.768    -188.597    -304.439
  O      -23.167    -188.786    -305.713
  C      -25.143    -187.955    -304.595
  O      -25.019    -186.580    -305.004
  C      -26.041    -188.636    -305.624
  O      -26.710    -189.768    -305.077
  C      -27.025    -187.517    -305.925
  O      -27.988    -187.417    -304.851
  C      -26.109    -186.280    -305.921
  N      -26.906    -183.787    -310.267
  C      -27.744    -183.966    -309.184
  N      -28.972    -183.407    -309.272
  N      -27.412    -184.635    -308.108
  C      -26.163    -185.160    -308.167
  C      -25.243    -185.057    -309.193
  C      -25.620    -184.299    -310.364
  O      -24.910    -184.104    -311.350
  N      -24.083    -185.719    -308.894
  C      -24.307    -186.242    -307.703
  N      -25.559    -185.933    -307.223
  O      -22.157    -191.020    -305.115
  O      -21.210    -189.795    -307.150
  H      -27.490    -187.227    -304.036
  H      -21.636    -191.721    -305.550
  H      -27.215    -183.272    -311.077
  H      -23.601    -186.842    -307.148
  H      -26.621    -185.384    -305.542
  H      -27.589    -187.682    -306.842
  H      -29.300    -182.896    -310.081
  H      -25.488    -188.895    -306.539
  H      -29.602    -183.522    -308.487
  H      -25.625    -187.956    -303.607
  H      -23.128    -187.944    -303.840
  H      -23.858    -189.568    -303.944
  P      -27.311    -190.856    -306.091
  C      -26.359    -192.861    -304.757
  O      -27.517    -192.213    -305.254
  O      -26.062    -191.186    -307.036
  O      -28.491    -190.402    -306.887
  H      -26.225    -190.846    -307.939
  H      -26.645    -193.744    -304.224
  H      -25.836    -192.200    -304.098
  H      -25.722    -193.128    -305.574

 6  7  8  9  10  11  12  13  14  15  26  29  33  34 0
 6-311+G(2d,p)
 ****
 36  38  39  40  41 0
 6-311+G(2d,p)
 ****
 1  2  3  4  5  16  17  18  19  20  21  22  23  24  25 0
 3-21G
 ****
 27  28  30  31  32  35  37  42  43  44  45  46  47 0
 3-21G
 ****
 48  49 0
 3-21G
 ****


