%nproc=1
%NoSave
%Mem=1900MB
#P OB98/GEN NMR

erre ene a

0 1
  C     -660.902    -566.958     218.693
  O     -661.439    -567.445     219.906
  H     -661.698    -566.451     218.134
  H     -660.528    -567.786     218.090
  H     -660.103    -566.237     218.880
  P     -660.447    -568.064     220.998
  C     -660.965    -566.102     222.597
  O     -659.960    -566.856     221.933
  C     -660.352    -564.914     223.341
  O     -659.494    -564.174     222.402
  C     -661.377    -563.907     223.896
  O     -660.807    -563.317     225.068
  C     -661.454    -562.901     222.749
  O     -662.132    -561.730     223.094
  C     -659.960    -562.799     222.410
  N     -659.644    -562.147     221.152
  C     -658.395    -561.539     221.024
  O     -657.538    -561.534     221.905
  N     -658.143    -560.935     219.814
  C     -658.998    -560.880     218.746
  O     -658.704    -560.342     217.690
  C     -660.307    -561.525     218.939
  C     -660.572    -562.127     220.116
  O     -659.357    -568.931     220.464
  O     -661.422    -568.883     221.972
  H     -661.371    -569.837     221.761
  H     -662.160    -561.138     222.305
  H     -657.243    -560.487     219.704
  H     -661.009    -561.505     218.129
  H     -661.516    -562.629     220.283
  H     -659.426    -562.284     223.226
  H     -662.019    -563.337     221.912
  H     -662.338    -564.377     224.150
  H     -659.694    -565.285     224.135
  H     -661.460    -566.770     223.323
  H     -661.701    -565.749     221.868
  P     -661.248    -563.703     226.558
  C     -658.869    -564.487     227.233
  O     -660.232    -564.833     227.098
  O     -662.682    -564.076     226.696
  O     -660.885    -562.421     227.461
  H     -661.469    -562.398     228.247
  H     -658.321    -565.331     227.598
  H     -658.774    -563.674     227.922
  H     -658.479    -564.194     226.280

 6  7  8  9  10  11  12  13  14  15  16  27  31  32  33  34  35 0
 6-311+G(2d,p)
 ****
 36  37 0
 6-311+G(2d,p)
 ****
 1  2  3  4  5  17  18  19  20  21  22  23  24  25 0
 3-21G
 ****
 26  28  29  30  38  39  40  41  42  43  44  45 0
 3-21G
 ****


