%nproc=1
%NoSave
%Mem=1900MB
#P OB98/GEN NMR

erre ene a

0 1
  C      187.164     -52.309    -256.779
  O      186.603     -53.551    -257.147
  P      187.486     -54.887    -257.185
  C      187.396     -54.915    -259.762
  O      188.232     -54.902    -258.611
  C      187.860     -55.997    -260.744
  O      189.084     -55.544    -261.396
  C      188.164     -57.343    -260.057
  O      187.495     -58.468    -260.626
  C      189.683     -57.399    -260.085
  O      190.213     -58.705    -259.946
  C      189.994     -56.661    -261.391
  N      191.390     -56.242    -261.477
  C      192.225     -56.983    -262.311
  O      191.865     -57.946    -262.979
  N      193.542     -56.618    -262.317
  C      194.120     -55.685    -261.507
  O      195.321     -55.479    -261.496
  C      193.199     -54.964    -260.618
  C      191.895     -55.254    -260.659
  O      186.756     -56.143    -256.862
  O      188.690     -54.553    -256.183
  H      191.141     -58.618    -259.648
  H      189.230     -53.781    -256.432
  H      194.159     -57.146    -262.919
  H      193.628     -54.227    -259.953
  H      191.190     -54.736    -260.012
  H      189.765     -57.275    -262.263
  H      190.056     -56.811    -259.236
  H      187.821     -57.339    -259.009
  H      187.079     -56.112    -261.504
  H      187.455     -53.938    -260.250
  H      186.351     -55.072    -259.461
  P      186.784     -59.638    -259.801
  C      188.930     -61.111    -259.848
  O      187.922     -60.492    -259.069
  O      185.784     -60.437    -260.555
  O      186.083     -58.862    -258.583
  H      185.292     -59.349    -258.296
  H      189.278     -62.006    -259.321
  H      189.770     -60.421    -259.966
  H      188.553     -61.403    -260.831
  H      186.410     -51.551    -256.818
  H      187.955     -52.060    -257.455
  H      187.553     -52.374    -255.784

 3  4  5  6  7  8  9  10  11  12  13  23  28  29  30  31  32 0
 6-311+G(2d,p)
 ****
 33  34 0
 6-311+G(2d,p)
 ****
 1  2  14  15  16  17  18  19  20  21  22  24  25  26  27 0
 3-21G
 ****
 35  36  37  38  39  40  41  42  43  44  45 0
 3-21G
 ****


