%nproc=1
%NoSave
%Mem=1900MB
#P OB98/GEN NMR

erre ene a

0 1
  C      285.957    -429.782     361.198
  O      287.255    -430.206     360.763
  P      288.346    -429.059     360.529
  C      290.884    -428.951     359.970
  O      289.712    -429.749     360.044
  C      292.102    -429.754     360.424
  O      291.973    -430.196     361.795
  C      292.322    -431.029     359.611
  O      292.857    -430.734     358.338
  C      293.256    -431.796     360.536
  O      294.606    -431.311     360.407
  C      292.707    -431.437     361.930
  N      292.536    -435.719     364.736
  C      293.558    -434.924     364.344
  N      293.527    -433.803     363.599
  C      292.265    -433.510     363.250
  C      291.116    -434.217     363.568
  C      291.282    -435.374     364.343
  N      290.239    -436.182     364.722
  N      290.001    -433.604     363.028
  C      290.475    -432.562     362.371
  N      291.834    -432.449     362.481
  O      288.679    -428.552     362.007
  O      287.864    -427.940     359.655
  H      294.788    -431.200     359.451
  H      288.297    -427.667     362.152
  H      294.548    -435.240     364.683
  H      289.874    -431.857     361.799
  H      293.508    -431.257     362.658
  H      293.277    -432.872     360.335
  H      291.367    -431.573     359.501
  H      292.984    -429.112     360.346
  H      290.776    -428.063     360.602
  H      290.454    -437.039     365.216
  H      289.313    -435.985     364.371
  H      290.998    -428.597     358.936
  P      291.861    -430.776     357.076
  C      292.258    -430.275     354.594
  O      292.843    -430.690     355.811
  O      291.220    -429.311     357.123
  O      290.893    -431.910     357.077
  H      291.902    -428.628     357.270
  H      293.042    -430.224     353.827
  H      291.811    -429.280     354.705
  H      291.499    -430.990     354.276
  H      285.324    -430.636     361.317
  H      285.534    -429.124     360.468
  H      286.044    -429.269     362.133

 3  4  5  6  7  8  9  10  11  12  22  25  29  30  31  32 0
 6-311+G(2d,p)
 ****
 33  36  37 0
 6-311+G(2d,p)
 ****
 1  2  13  14  15  16  17  18  19  20  21  23  24  26 0
 3-21G
 ****
 27  28  34  35  38  39  40  41  42  43  44  45  46  47  48 0
 3-21G
 ****


