%nproc=1
%NoSave
%Mem=1900MB
#P OB98/GEN NMR

erre ene a

0 1
  C       17.662    -105.756    -124.953
  O       16.798    -105.562    -126.079
  P       15.576    -104.537    -125.909
  C       13.518    -106.118    -125.990
  O       14.359    -105.301    -125.190
  C       12.183    -106.409    -125.286
  O       12.409    -106.913    -123.939
  C       11.282    -105.179    -125.151
  O        9.917    -105.616    -125.173
  C       11.609    -104.680    -123.757
  O       10.594    -103.810    -123.254
  C       11.764    -106.009    -123.019
  N       11.485    -105.089    -118.066
  C       10.491    -105.108    -119.026
  N        9.231    -104.882    -118.594
  N       10.711    -105.330    -120.296
  C       12.016    -105.575    -120.573
  C       13.092    -105.578    -119.715
  C       12.835    -105.307    -118.316
  O       13.678    -105.263    -117.424
  N       14.263    -105.846    -120.380
  C       13.895    -105.998    -121.637
  N       12.540    -105.879    -121.800
  O       15.058    -104.346    -127.413
  O       15.962    -103.230    -125.300
  H       10.918    -103.447    -122.400
  H       15.298    -103.457    -127.733
  H       11.259    -104.902    -117.104
  H       14.563    -106.191    -122.464
  H       10.796    -106.442    -122.735
  H       12.557    -104.126    -123.770
  H        8.986    -104.755    -117.624
  H       11.429    -104.414    -125.920
  H        8.479    -104.931    -119.271
  H       11.658    -107.194    -125.843
  H       14.020    -107.064    -126.221
  H       13.359    -105.628    -126.956
  P        8.967    -104.977    -126.296
  C        7.882    -103.134    -124.821
  O        8.762    -103.442    -125.887
  O        7.538    -105.638    -126.001
  O        9.415    -105.214    -127.700
  H        6.996    -105.647    -126.811
  H        8.471    -102.893    -123.931
  H        7.205    -103.964    -124.593
  H        7.284    -102.261    -125.099
  H       18.426    -106.460    -125.207
  H       17.093    -106.130    -124.127
  H       18.112    -104.823    -124.684

 3  4  5  6  7  8  9  10  11  12  23  26  30  31 0
 6-311+G(2d,p)
 ****
 33  35  36  37  38 0
 6-311+G(2d,p)
 ****
 1  2  13  14  15  16  17  18  19  20  21  22  24  25 0
 3-21G
 ****
 27  28  29  32  34  39  40  41  42  43  44  45  46  47  48  49 0
 3-21G
 ****


