%nproc=1
%NoSave
%Mem=1900MB
#P OB98/GEN NMR

erre ene a

0 1
  C      447.059     645.941    -210.878
  O      448.399     646.330    -211.095
  H      446.924     645.737    -209.813
  H      446.834     645.025    -211.435
  H      446.376     646.737    -211.172
  P      448.892     646.651    -212.587
  C      449.705     648.986    -211.880
  O      448.817     648.257    -212.724
  C      450.437     650.071    -212.664
  O      451.470     649.470    -213.488
  C      449.527     650.885    -213.602
  O      449.790     652.283    -213.446
  C      449.947     650.438    -214.989
  O      449.662     651.400    -216.001
  C      451.427     650.137    -214.760
  N      452.003     649.345    -215.838
  C      452.964     649.976    -216.632
  O      453.291     651.150    -216.395
  N      453.497     649.297    -217.695
  C      453.069     648.102    -217.982
  N      453.618     647.502    -219.068
  C      452.047     647.403    -217.184
  C      451.563     648.079    -216.127
  O      448.181     645.894    -213.657
  O      450.472     646.375    -212.564
  H      449.928     652.291    -215.668
  H      450.779     646.210    -213.486
  H      451.708     646.415    -217.454
  H      450.805     647.640    -215.485
  H      452.012     651.076    -214.671
  H      449.421     649.514    -215.254
  H      448.465     650.700    -213.427
  H      450.962     650.723    -211.956
  H      454.308     648.020    -219.590
  H      450.422     648.287    -211.435
  H      453.347     646.582    -219.393
  H      449.117     649.458    -211.084
  P      448.566     653.270    -213.766
  C      447.854     653.460    -211.275
  O      447.473     653.114    -212.598
  O      447.872     652.597    -215.048
  O      449.002     654.681    -214.045
  H      448.033     653.170    -215.832
  H      447.027     653.305    -210.614
  H      448.146     654.489    -211.245
  H      448.676     652.847    -210.969

 6  7  8  9  10  11  12  13  14  15  16  26  30  31  32  33  35 0
 6-311+G(2d,p)
 ****
 37  38 0
 6-311+G(2d,p)
 ****
 1  2  3  4  5  17  18  19  20  21  22  23  24  25 0
 3-21G
 ****
 27  28  29  34  36  39  40  41  42  43  44  45  46 0
 3-21G
 ****


