%nproc=1
%NoSave
%Mem=1900MB
#P OB98/GEN NMR

erre ene a

0 1
  C      -84.391     137.104    -314.516
  O      -83.413     137.995    -314.019
  H      -84.192     136.107    -314.108
  H      -84.337     137.055    -315.606
  H      -85.389     137.421    -314.202
  P      -83.529     139.537    -314.477
  C      -82.575     139.295    -316.887
  O      -83.729     139.484    -316.074
  C      -82.947     139.404    -318.370
  O      -83.711     138.233    -318.752
  C      -83.796     140.642    -318.694
  O      -83.321     141.229    -319.909
  C      -85.199     140.088    -318.873
  O      -85.998     140.911    -319.728
  C      -84.924     138.670    -319.389
  N      -86.037     137.764    -319.100
  C      -87.129     137.805    -319.973
  O      -87.134     138.591    -320.926
  N      -88.216     137.003    -319.719
  C      -88.231     136.263    -318.658
  N      -89.344     135.505    -318.446
  C      -87.126     136.222    -317.679
  C      -86.064     136.984    -317.963
  O      -82.032     140.073    -314.295
  O      -84.555     140.340    -313.745
  H      -86.908     140.534    -319.741
  H      -81.997     141.061    -314.337
  H      -87.190     135.604    -316.795
  H      -85.203     137.018    -317.303
  H      -84.757     138.681    -320.477
  H      -85.698     140.038    -317.898
  H      -83.773     141.391    -317.905
  H      -82.024     139.387    -318.963
  H      -90.087     135.566    -319.134
  H      -82.154     138.309    -316.684
  H      -89.474     134.916    -317.639
  H      -81.835     140.067    -316.643
  P      -82.050     142.201    -319.770
  C      -83.187     144.525    -319.576
  O      -82.503     143.477    -318.899
  O      -81.864     142.790    -321.244
  O      -80.821     141.512    -319.265
  H      -81.157     142.308    -321.719
  H      -83.426     145.302    -318.881
  H      -84.088     144.142    -320.007
  H      -82.561     144.918    -320.349

 6  7  8  9  10  11  12  13  14  15  16  26  30  31  32  33  35 0
 6-311+G(2d,p)
 ****
 37  38 0
 6-311+G(2d,p)
 ****
 1  2  3  4  5  17  18  19  20  21  22  23  24  25 0
 3-21G
 ****
 27  28  29  34  36  39  40  41  42  43  44  45  46 0
 3-21G
 ****


