%nproc=1
%NoSave
%Mem=1900MB
#P OB98/GEN NMR

erre ene a

0 1
  C      806.691    -258.393      71.825
  O      806.109    -258.207      73.097
  P      806.409    -256.876      73.938
  C      808.530    -255.729      74.851
  O      808.001    -256.696      73.938
  C      810.003    -256.042      75.145
  O      810.729    -256.311      73.922
  C      810.757    -254.875      75.786
  O      810.370    -254.487      77.087
  C      812.194    -255.320      75.583
  O      812.584    -256.262      76.592
  C      812.119    -256.014      74.200
  N      812.716    -255.178      73.145
  C      814.093    -255.294      72.986
  O      814.793    -256.045      73.653
  N      814.640    -254.488      72.023
  C      813.975    -253.575      71.261
  O      814.549    -252.858      70.444
  C      812.529    -253.478      71.500
  C      811.962    -254.273      72.419
  O      805.788    -256.827      75.291
  O      805.935    -255.704      72.962
  H      813.540    -256.421      76.502
  H      806.400    -255.668      72.105
  H      815.643    -254.558      71.893
  H      811.969    -252.766      70.902
  H      810.897    -254.230      72.608
  H      812.660    -256.960      74.220
  H      812.895    -254.474      75.652
  H      810.604    -253.991      75.158
  H      810.043    -256.943      75.770
  H      807.954    -255.783      75.790
  H      808.407    -254.732      74.435
  P      810.664    -253.031      77.686
  C      812.721    -251.443      77.775
  O      812.242    -252.765      77.607
  O      809.982    -252.684      78.972
  O      810.112    -252.076      76.530
  H      809.783    -251.248      76.924
  H      813.807    -251.440      77.646
  H      812.493    -251.077      78.777
  H      812.273    -250.781      77.022
  H      806.376    -259.333      71.423
  H      807.757    -258.383      71.916
  H      806.382    -257.604      71.172

 3  4  5  6  7  8  9  10  11  12  13  23  28  29  30  31  32 0
 6-311+G(2d,p)
 ****
 33  34 0
 6-311+G(2d,p)
 ****
 1  2  14  15  16  17  18  19  20  21  22  24  25  26  27 0
 3-21G
 ****
 35  36  37  38  39  40  41  42  43  44  45 0
 3-21G
 ****


