%nproc=1
%NoSave
%Mem=1900MB
#P OB98/GEN NMR

erre ene a

0 1
  C       91.739     262.015    -723.598
  O       90.427     262.502    -723.762
  H       92.407     262.570    -724.261
  H       91.773     260.950    -723.867
  H       92.087     262.143    -722.569
  P       89.305     262.096    -722.688
  C       88.615     264.394    -721.717
  O       88.279     263.324    -722.595
  C       87.998     265.715    -722.205
  O       88.776     266.214    -723.339
  C       86.562     265.511    -722.713
  O       85.778     266.696    -722.566
  C       86.769     265.230    -724.198
  O       85.612     265.505    -724.988
  C       87.965     266.134    -724.521
  N       88.534     265.938    -729.586
  C       87.453     266.370    -728.838
  N       86.385     266.819    -729.545
  N       87.415     266.352    -727.535
  C       88.523     265.811    -726.965
  C       89.644     265.323    -727.600
  C       89.693     265.384    -729.049
  O       90.609     264.990    -729.745
  N       90.561     264.840    -726.690
  C       89.994     265.039    -725.519
  N       88.764     265.643    -725.626
  O       90.077     262.189    -721.284
  O       88.682     260.746    -722.887
  H       85.875     265.415    -725.920
  H       89.632     261.647    -720.613
  H       88.524     266.005    -730.587
  H       90.428     264.765    -724.559
  H       87.627     267.140    -724.760
  H       86.991     264.170    -724.318
  H       86.305     266.670    -730.539
  H       86.062     264.678    -722.226
  H       85.488     266.848    -729.039
  H       88.066     266.475    -721.415
  H       89.707     264.457    -721.707
  H       88.291     264.169    -720.702
  P       84.223     266.624    -722.933
  C       83.278     267.208    -720.528
  O       83.376     267.506    -721.903
  O       83.810     265.119    -722.563
  O       83.901     266.960    -724.370
  H       83.547     264.624    -723.375
  H       82.660     267.938    -720.048
  H       84.254     267.223    -720.089
  H       82.846     266.237    -720.403

 6  7  8  9  10  11  12  13  14  15  26  29  33  34 0
 6-311+G(2d,p)
 ****
 36  38  39  40  41 0
 6-311+G(2d,p)
 ****
 1  2  3  4  5  16  17  18  19  20  21  22  23  24  25 0
 3-21G
 ****
 27  28  30  31  32  35  37  42  43  44  45  46  47 0
 3-21G
 ****
 48  49 0
 3-21G
 ****


