%nproc=1
%NoSave
%Mem=1900MB
#P OB98/GEN NMR

erre ene a

0 1
  C     -517.567     317.562    -315.503
  O     -517.244     318.939    -315.594
  H     -516.982     317.119    -314.697
  H     -517.318     317.059    -316.437
  H     -518.628     317.430    -315.276
  P     -517.975     319.822    -316.714
  C     -516.614     320.480    -318.822
  O     -517.272     319.429    -318.108
  C     -515.313     320.858    -318.113
  O     -514.579     319.669    -317.741
  C     -514.366     321.708    -318.971
  O     -514.764     323.072    -318.937
  C     -513.044     321.450    -318.262
  O     -512.993     322.227    -317.043
  C     -513.168     319.938    -317.922
  N     -509.109     317.391    -319.594
  C     -509.228     318.268    -318.530
  N     -508.107     318.510    -317.834
  N     -510.352     318.831    -318.180
  C     -511.375     318.553    -319.016
  C     -511.378     317.717    -320.122
  C     -510.133     317.044    -320.452
  O     -509.989     316.257    -321.390
  N     -512.591     317.721    -320.768
  C     -513.342     318.516    -320.008
  N     -512.641     319.067    -318.963
  O     -518.047     321.295    -316.457
  O     -519.430     319.154    -316.840
  H     -513.015     323.161    -317.303
  H     -520.075     319.600    -316.266
  H     -508.200     316.987    -319.829
  H     -514.398     318.742    -320.211
  H     -512.653     319.684    -316.979
  H     -512.188     321.724    -318.863
  H     -507.182     318.325    -318.197
  H     -514.295     321.316    -319.994
  H     -508.167     319.180    -317.055
  H     -515.566     321.377    -317.171
  H     -517.308     321.342    -318.845
  H     -516.407     320.171    -319.855
  P     -514.157     324.142    -319.987
  C     -512.393     325.824    -319.077
  O     -512.698     324.463    -319.411
  O     -515.014     325.342    -320.230
  O     -513.843     323.270    -321.302
  H     -514.607     323.231    -321.919
  H     -511.391     325.885    -318.708
  H     -513.072     326.167    -318.324
  H     -512.489     326.436    -319.950

 6  7  8  9  10  11  12  13  14  15  26  29  33  34 0
 6-311+G(2d,p)
 ****
 36  38  39  40  41 0
 6-311+G(2d,p)
 ****
 1  2  3  4  5  16  17  18  19  20  21  22  23  24  25 0
 3-21G
 ****
 27  28  30  31  32  35  37  42  43  44  45  46  47 0
 3-21G
 ****
 48  49 0
 3-21G
 ****


