%nproc=1
%NoSave
%Mem=1900MB
#P OB98/GEN NMR

erre ene a

0 1
  C      -93.503     321.389      45.471
  O      -93.133     322.405      44.561
  H      -93.986     321.852      46.335
  H      -92.621     320.843      45.816
  H      -94.211     320.698      45.005
  P      -92.364     321.984      43.221
  C      -90.050     320.977      42.668
  O      -90.898     321.515      43.674
  C      -88.752     320.463      43.285
  O      -89.033     319.688      44.468
  C      -87.932     319.563      42.364
  O      -87.166     320.340      41.458
  C      -87.069     318.837      43.382
  O      -86.009     319.707      43.829
  C      -88.068     318.600      44.530
  N      -87.755     313.559      45.053
  C      -86.758     314.516      45.074
  N      -85.495     314.063      45.225
  N      -86.978     315.800      44.942
  C      -88.278     316.100      44.731
  C      -89.353     315.241      44.671
  C      -89.105     313.830      44.880
  O      -89.962     312.953      44.896
  N      -90.508     315.905      44.345
  C      -90.142     317.169      44.258
  N      -88.795     317.341      44.475
  O      -92.361     322.999      42.118
  O      -93.064     320.615      42.776
  H      -86.403     320.584      43.989
  H      -93.798     320.781      42.157
  H      -87.524     312.584      45.150
  H      -90.809     317.997      44.048
  H      -87.587     318.643      45.512
  H      -86.599     317.939      42.979
  H      -85.249     313.083      45.178
  H      -88.562     318.832      41.848
  H      -84.744     314.745      45.183
  H      -88.164     321.335      43.606
  H      -89.842     321.779      41.952
  H      -90.554     320.161      42.139
  P      -86.278     319.652      40.306
  C      -84.065     318.316      40.309
  O      -85.122     318.851      41.081
  O      -85.789     320.584      39.254
  O      -87.195     318.467      39.756
  H      -87.829     318.761      39.058
  H      -83.373     317.813      40.952
  H      -83.562     319.108      39.795
  H      -84.460     317.622      39.596

 6  7  8  9  10  11  12  13  14  15  26  29  33  34 0
 6-311+G(2d,p)
 ****
 36  38  39  40  41 0
 6-311+G(2d,p)
 ****
 1  2  3  4  5  16  17  18  19  20  21  22  23  24  25 0
 3-21G
 ****
 27  28  30  31  32  35  37  42  43  44  45  46  47 0
 3-21G
 ****
 48  49 0
 3-21G
 ****


