%nproc=1
%NoSave
%Mem=1900MB
#P OB98/GEN NMR

erre ene a

0 1
  C       -7.075     182.656    -131.085
  O       -6.964     182.015    -129.831
  H       -7.186     181.892    -131.860
  H       -6.184     183.250    -131.302
  H       -7.961     183.298    -131.101
  P       -6.536     182.904    -128.563
  C       -8.402     182.061    -126.987
  O       -7.005     182.066    -127.274
  C       -8.827     180.735    -126.352
  O       -8.865     179.695    -127.354
  C       -7.865     180.227    -125.287
  O       -7.853     181.000    -124.105
  C       -8.204     178.747    -125.216
  O       -9.286     178.455    -124.336
  C       -8.622     178.443    -126.676
  N       -7.629     177.632    -127.373
  C       -7.642     176.274    -127.075
  O       -8.415     175.760    -126.266
  N       -6.701     175.514    -127.714
  C       -5.737     175.983    -128.560
  O       -4.894     175.256    -129.071
  C       -5.757     177.432    -128.814
  C       -6.687     178.182    -128.217
  O       -7.023     184.323    -128.570
  O       -4.944     182.769    -128.523
  H       -8.967     178.613    -123.427
  H       -4.542     183.474    -127.961
  H       -6.702     174.527    -127.521
  H       -5.006     177.839    -129.478
  H       -6.724     179.254    -128.389
  H       -9.574     177.894    -126.691
  H       -7.350     178.155    -124.878
  H       -6.847     180.288    -125.696
  H       -9.838     180.853    -125.947
  H       -8.937     182.191    -127.932
  H       -8.646     182.897    -126.323
  P       -6.697     180.907    -123.008
  C       -5.154     182.857    -123.759
  O       -6.083     182.378    -122.795
  O       -5.757     179.750    -123.116
  O       -7.557     180.702    -121.657
  H       -7.041     180.121    -121.064
  H       -4.834     183.841    -123.488
  H       -5.622     182.886    -124.721
  H       -4.307     182.204    -123.794

 6  7  8  9  10  11  12  13  14  15  16  26  31  32  33  34  35 0
 6-311+G(2d,p)
 ****
 36  37 0
 6-311+G(2d,p)
 ****
 1  2  3  4  5  17  18  19  20  21  22  23  24  25 0
 3-21G
 ****
 27  28  29  30  38  39  40  41  42  43  44  45 0
 3-21G
 ****


