%nproc=1
%NoSave
%Mem=1900MB
#P OB98/GEN NMR

erre ene a

0 1
  C      925.395    -605.931    -308.036
  O      924.735    -606.648    -306.978
  P      925.124    -608.192    -306.810
  C      925.913    -608.037    -304.335
  O      926.289    -608.306    -305.688
  C      927.056    -608.470    -303.362
  O      927.111    -609.938    -303.323
  C      928.464    -607.970    -303.734
  O      929.164    -607.661    -302.520
  C      929.112    -609.214    -304.334
  O      930.528    -609.119    -304.272
  C      928.500    -610.308    -303.487
  N      929.903    -615.096    -302.664
  C      929.781    -614.048    -301.774
  N      930.131    -614.317    -300.507
  N      929.381    -612.838    -302.122
  C      929.038    -612.766    -303.428
  C      929.056    -613.715    -304.426
  C      929.568    -615.038    -304.008
  O      929.735    -616.010    -304.780
  N      928.652    -613.235    -305.626
  C      928.371    -611.970    -305.395
  N      928.578    -611.628    -304.059
  O      925.886    -608.568    -308.161
  O      923.942    -609.110    -306.581
  H      930.790    -608.246    -304.621
  H      925.433    -609.299    -308.621
  H      930.231    -616.003    -302.377
  H      928.017    -611.252    -306.119
  H      928.932    -610.355    -302.497
  H      928.842    -609.274    -305.395
  H      930.400    -615.240    -300.158
  H      928.470    -607.112    -304.388
  H      930.026    -613.545    -299.811
  H      926.778    -608.146    -302.347
  H      925.003    -608.570    -304.083
  H      925.754    -606.978    -304.239
  P      929.663    -606.150    -302.329
  C      927.566    -605.261    -301.080
  O      928.340    -605.239    -302.255
  O      930.276    -605.794    -303.785
  O      930.632    -605.921    -301.244
  H      930.969    -605.077    -303.696
  H      928.036    -605.787    -300.271
  H      926.616    -605.796    -301.289
  H      927.344    -604.236    -300.784
  H      925.054    -604.917    -308.046
  H      925.170    -606.393    -308.975
  H      926.453    -605.950    -307.874

 3  4  5  6  7  8  9  10  11  12  23  26  30  31  33  0
 6-311+G(2d,p)
 ****
 35  36  37  38 0
 6-311+G(2d,p)
 ****
 1  2  13  14  15  16  17  18  19  20  21  22  24  25  27  28  29 0
 3-21G
 ****
 32  34  39  40  41  42  43  44  45  46  47  48  49 0
 3-21G
 ****


