%nproc=1
%NoSave
%Mem=1900MB
#P OB98/GEN NMR

erre ene a

0 1
  C     2040.453      -6.864     128.375
  O     2041.038      -6.683     127.095
  P     2040.048      -6.313     125.885
  C     2040.734      -3.812     125.490
  O     2039.787      -4.731     126.017
  C     2041.115      -2.797     126.573
  O     2041.707      -3.481     127.715
  C     2042.151      -1.792     126.137
  O     2041.603      -0.799     125.292
  C     2042.654      -1.253     127.479
  O     2041.732      -0.269     127.994
  C     2042.613      -2.527     128.352
  N     2043.925      -3.124     128.569
  C     2044.623      -2.652     129.683
  O     2044.198      -1.767     130.433
  N     2045.862      -3.198     129.890
  C     2046.455      -4.130     129.093
  O     2047.559      -4.600     129.339
  C     2045.688      -4.551     127.924
  C     2044.490      -4.039     127.707
  O     2038.676      -6.986     126.376
  O     2040.557      -6.777     124.559
  H     2038.563      -6.951     127.339
  H     2042.157       0.078     128.811
  H     2046.367      -2.877     130.682
  H     2046.166      -5.280     127.252
  H     2043.918      -4.336     126.834
  H     2042.163      -2.300     129.332
  H     2043.636      -0.780     127.421
  H     2042.972      -2.286     125.613
  H     2040.212      -2.284     126.918
  H     2040.299      -3.270     124.644
  H     2041.600      -4.355     125.125
  P     2041.189      -1.256     123.784
  C     2038.640      -0.675     123.720
  O     2039.634      -1.660     123.815
  O     2041.944      -2.661     123.672
  O     2041.572      -0.268     122.729
  H     2041.848      -3.205     124.479
  H     2037.712      -1.141     123.414
  H     2038.896       0.071     122.961
  H     2038.489      -0.185     124.686
  H     2041.216      -7.105     129.085
  H     2039.741      -7.662     128.332
  H     2039.960      -5.962     128.673

 3  4  5  6  7  8  9  10  11  12  13  24  28  29  30  31  32 0
 6-311+G(2d,p)
 ****
 33  34 0
 6-311+G(2d,p)
 ****
 1  2  14  15  16  17  18  19  20  21  22  23  25  26  27 0
 3-21G
 ****
 35  36  37  38  39  40  41  42  43  44  45 0
 3-21G
 ****


