%nproc=1
%NoSave
%Mem=1900MB
#P OB98/GEN NMR

erre ene a

0 1
  C       61.255     698.915    -122.577
  O       60.042     699.622    -122.439
  H       61.109     697.896    -122.203
  H       62.033     699.398    -121.982
  H       61.570     698.860    -123.622
  P       59.824     700.956    -123.301
  C       60.241     703.221    -122.134
  O       60.829     702.079    -122.746
  C       59.725     702.906    -120.726
  O       60.787     702.334    -119.937
  C       59.241     704.160    -119.985
  O       57.889     704.501    -120.233
  C       59.448     703.759    -118.529
  O       58.298     703.079    -117.998
  C       60.655     702.810    -118.586
  N       63.642     704.151    -114.659
  C       62.339     703.681    -114.635
  N       61.758     703.602    -113.416
  N       61.677     703.347    -115.712
  C       62.352     703.584    -116.864
  C       63.640     704.064    -117.008
  C       64.392     704.360    -115.806
  O       65.546     704.766    -115.772
  N       63.974     704.208    -118.336
  C       62.868     703.892    -118.978
  N       61.887     703.437    -118.131
  O       58.396     701.491    -122.801
  O       59.831     700.767    -124.789
  H       58.345     703.132    -117.023
  H       57.946     701.953    -123.534
  H       64.107     704.365    -113.793
  H       62.742     703.948    -120.056
  H       60.494     701.927    -117.959
  H       59.606     704.644    -117.901
  H       62.192     703.925    -112.566
  H       59.894     705.019    -120.203
  H       60.748     703.439    -113.375
  H       58.930     702.153    -120.801
  H       59.408     703.523    -122.780
  H       60.956     704.051    -122.101
  P       57.388     706.016    -120.076
  C       56.056     706.537    -117.866
  O       57.300     706.360    -118.516
  O       55.850     705.933    -120.518
  O       58.144     707.032    -120.870
  H       55.743     706.226    -121.446
  H       56.222     706.759    -116.832
  H       55.479     705.640    -117.950
  H       55.526     707.346    -118.324

 6  7  8  9  10  11  12  13  14  15  26  29  33  34 0
 6-311+G(2d,p)
 ****
 36  38  39  40  41 0
 6-311+G(2d,p)
 ****
 1  2  3  4  5  16  17  18  19  20  21  22  23  24  25 0
 3-21G
 ****
 27  28  30  31  32  35  37  42  43  44  45  46  47 0
 3-21G
 ****
 48  49 0
 3-21G
 ****


