%nproc=1
%NoSave
%Mem=1900MB
#P OB98/GEN NMR

erre ene a

0 1
  C     1117.217    -251.885    1613.989
  O     1118.294    -250.959    1613.990
  P     1119.629    -251.377    1614.810
  C     1118.663    -251.070    1617.228
  O     1119.571    -250.614    1616.196
  C     1118.805    -250.217    1618.468
  O     1120.183    -250.225    1618.929
  C     1118.438    -248.743    1618.302
  O     1117.036    -248.541    1618.372
  C     1119.115    -248.136    1619.507
  O     1118.328    -248.325    1620.690
  C     1120.423    -248.923    1619.608
  N     1124.736    -246.434    1620.456
  C     1123.911    -247.126    1621.350
  N     1124.287    -247.152    1622.639
  N     1122.851    -247.810    1620.990
  C     1122.599    -247.703    1619.617
  C     1123.343    -247.045    1618.658
  C     1124.526    -246.312    1619.104
  O     1125.230    -245.626    1618.376
  N     1122.786    -247.203    1617.435
  C     1121.718    -247.948    1617.631
  N     1121.551    -248.281    1618.962
  O     1120.805    -250.633    1614.012
  O     1119.864    -252.846    1614.892
  H     1117.404    -248.117    1620.459
  H     1121.646    -251.020    1614.222
  H     1125.537    -245.939    1620.796
  H     1121.026    -248.294    1616.871
  H     1120.707    -249.150    1620.634
  H     1119.278    -247.039    1619.406
  H     1125.072    -246.595    1622.994
  H     1118.864    -248.336    1617.389
  H     1123.697    -247.583    1623.334
  H     1118.163    -250.658    1619.267
  H     1118.874    -252.120    1617.437
  H     1117.658    -251.024    1616.832
  P     1116.345    -247.867    1617.087
  C     1116.574    -245.536    1618.281
  O     1115.719    -246.475    1617.614
  O     1115.025    -248.778    1616.834
  O     1117.229    -247.791    1615.873
  H     1114.760    -248.747    1615.882
  H     1116.077    -244.584    1618.313
  H     1117.535    -245.410    1617.716
  H     1116.769    -245.901    1619.303
  H     1116.406    -251.488    1613.416
  H     1116.893    -252.056    1614.994
  H     1117.541    -252.808    1613.556

 3  4  5  6  7  8  9  10  11  12  23  26  30  31 0
 6-311+G(2d,p)
 ****
 33  35  36  37  38 0
 6-311+G(2d,p)
 ****
 1  2  13  14  15  16  17  18  19  20  21  22  24  25 0
 3-21G
 ****
 27  28  29  32  34  39  40  41  42  43  44  45  46  47  48  49 0
 3-21G
 ****


