%nproc=1
%NoSave
%Mem=1900MB
#P OB98/GEN NMR

erre ene a

0 1
  C     -983.329    1338.872    -713.211
  O     -983.486    1338.220    -711.938
  P     -983.727    1339.156    -710.644
  C     -986.298    1338.689    -710.708
  O     -985.249    1339.661    -710.682
  C     -987.600    1339.226    -710.044
  O     -987.520    1339.091    -708.585
  C     -987.880    1340.719    -710.335
  O     -989.260    1340.901    -710.335
  C     -987.245    1341.410    -709.108
  O     -987.775    1342.761    -708.983
  C     -987.647    1340.429    -708.028
  N     -986.329    1343.551    -704.253
  C     -987.195    1343.739    -705.341
  N     -987.791    1344.955    -705.410
  N     -987.407    1342.888    -706.262
  C     -986.756    1341.696    -706.055
  C     -985.894    1341.366    -705.034
  C     -985.622    1342.384    -704.033
  O     -984.858    1342.245    -703.052
  N     -985.399    1340.088    -705.161
  C     -985.963    1339.658    -706.287
  N     -986.841    1340.557    -706.848
  O     -982.864    1340.471    -710.972
  O     -983.283    1338.535    -709.354
  H     -987.477    1343.078    -708.101
  H     -982.093    1340.493    -710.393
  H     -986.192    1344.280    -703.579
  H     -985.808    1338.674    -706.710
  H     -988.691    1340.549    -707.714
  H     -986.168    1341.479    -709.235
  H     -987.706    1345.684    -704.706
  H     -987.441    1341.075    -711.313
  H     -988.448    1345.110    -706.158
  H     -988.446    1338.617    -710.414
  H     -985.950    1337.789    -710.165
  H     -986.453    1338.367    -711.751
  P     -989.887    1341.734    -711.569
  C     -991.266    1339.682    -712.371
  O     -990.289    1340.646    -712.727
  O     -988.657    1342.483    -712.195
  O     -991.016    1342.699    -711.185
  H     -988.922    1343.270    -712.689
  H     -992.227    1339.970    -712.846
  H     -991.409    1339.590    -711.283
  H     -990.969    1338.709    -712.756
  H     -983.178    1338.136    -713.973
  H     -982.483    1339.526    -713.175
  H     -984.209    1339.439    -713.432

 3  4  5  6  7  8  9  10  11  12  23  26  30  31 0
 6-311+G(2d,p)
 ****
 33  35  36  37  38 0
 6-311+G(2d,p)
 ****
 1  2  13  14  15  16  17  18  19  20  21  22  24  25 0
 3-21G
 ****
 27  28  29  32  34  39  40  41  42  43  44  45  46  47  48  49 0
 3-21G
 ****


