%nproc=1
%NoSave
%Mem=1900MB
#P OB98/GEN NMR

erre ene a

0 1
  C      473.334     529.298    -660.018
  O      474.062     528.266    -660.649
  H      473.162     530.093    -660.744
  H      473.908     529.704    -659.180
  H      472.367     528.931    -659.664
  P      474.309     526.894    -659.848
  C      476.640     526.752    -660.940
  O      475.421     526.073    -660.662
  C      477.181     526.310    -662.300
  O      477.529     524.909    -662.270
  C      476.169     526.451    -663.438
  O      476.018     527.797    -663.835
  C      476.790     525.536    -664.479
  O      477.826     526.201    -665.203
  C      477.367     524.398    -663.612
  N      476.511     523.210    -663.622
  C      476.333     522.595    -664.858
  O      476.847     522.998    -665.902
  N      475.469     521.530    -664.873
  C      474.685     521.129    -663.828
  O      473.755     520.330    -663.950
  C      474.970     521.767    -662.535
  C      475.844     522.768    -662.495
  O      473.078     526.122    -659.499
  O      475.101     527.361    -658.536
  H      474.483     527.385    -657.781
  H      477.402     526.977    -665.628
  H      475.296     521.112    -665.778
  H      474.423     521.420    -661.669
  H      476.052     523.283    -661.556
  H      478.370     524.120    -663.960
  H      476.041     525.195    -665.208
  H      475.201     526.039    -663.126
  H      478.094     526.884    -662.511
  H      477.372     526.499    -660.161
  H      476.457     527.829    -660.923
  P      474.596     528.341    -664.331
  C      475.622     529.134    -666.560
  O      474.845     529.498    -665.419
  O      473.631     528.695    -663.249
  O      474.018     527.137    -665.230
  H      473.108     526.938    -664.946
  H      475.720     529.979    -667.209
  H      475.136     528.337    -667.083
  H      476.592     528.813    -666.243

 6  7  8  9  10  11  12  13  14  15  16  27  31  32  33  34  35 0
 6-311+G(2d,p)
 ****
 36  37 0
 6-311+G(2d,p)
 ****
 1  2  3  4  5  17  18  19  20  21  22  23  24  25 0
 3-21G
 ****
 26  28  29  30  38  39  40  41  42  43  44  45 0
 3-21G
 ****


