%nproc=1
%NoSave
%Mem=1900MB
#P OB98/GEN NMR

erre ene a

0 1
  C      185.710    -201.723    -443.465
  O      184.476    -202.253    -443.937
  H      186.493    -202.460    -443.628
  H      185.637    -201.519    -442.389
  H      185.964    -200.808    -444.006
  P      183.203    -201.276    -443.867
  C      182.885    -201.325    -446.443
  O      183.121    -200.531    -445.288
  C      183.176    -200.532    -447.722
  O      184.628    -200.437    -447.893
  C      182.600    -201.163    -449.006
  O      182.206    -200.107    -449.879
  C      183.819    -201.862    -449.608
  O      183.662    -202.090    -451.012
  C      184.915    -200.859    -449.239
  N      188.266    -202.720    -452.506
  C      187.019    -202.162    -452.719
  N      186.591    -202.090    -454.005
  N      186.244    -201.723    -451.758
  C      186.812    -201.826    -450.531
  C      188.031    -202.354    -450.186
  C      188.860    -202.875    -451.255
  O      189.968    -203.385    -451.125
  N      188.219    -202.310    -448.824
  C      187.126    -201.747    -448.360
  N      186.237    -201.424    -449.360
  O      183.690    -200.125    -442.863
  O      181.935    -201.922    -443.407
  H      183.797    -201.240    -451.466
  H      183.409    -200.334    -441.942
  H      188.794    -203.060    -453.288
  H      186.929    -201.536    -447.299
  H      184.907    -199.971    -449.882
  H      183.991    -202.836    -449.120
  H      187.147    -202.376    -454.786
  H      181.755    -201.844    -448.835
  H      185.693    -201.653    -454.174
  H      182.808    -199.514    -447.574
  H      181.830    -201.631    -446.448
  H      183.519    -202.220    -446.398
  P      180.668    -199.634    -449.850
  C      181.062    -197.361    -448.643
  O      180.466    -198.651    -448.605
  O      179.899    -200.963    -449.393
  O      180.152    -199.120    -451.169
  H      178.996    -200.964    -449.744
  H      180.832    -196.835    -447.740
  H      180.680    -196.816    -449.481
  H      182.123    -197.461    -448.737

 6  7  8  9  10  11  12  13  14  15  26  29  33  34 0
 6-311+G(2d,p)
 ****
 36  38  39  40  41 0
 6-311+G(2d,p)
 ****
 1  2  3  4  5  16  17  18  19  20  21  22  23  24  25 0
 3-21G
 ****
 27  28  30  31  32  35  37  42  43  44  45  46  47 0
 3-21G
 ****
 48  49 0
 3-21G
 ****


