%nproc=1
%NoSave
%Mem=1900MB
#P OB98/GEN NMR

erre ene a

0 1
  C      792.279     359.632    -336.136
  O      793.113     359.776    -335.007
  H      791.933     358.595    -336.186
  H      792.837     359.856    -337.047
  H      791.407     360.286    -336.064
  P      793.620     361.240    -334.604
  C      791.775     361.719    -332.866
  O      792.334     362.069    -334.126
  C      792.139     362.783    -331.826
  O      791.628     364.078    -332.249
  C      791.534     362.533    -330.452
  O      792.221     361.508    -329.756
  C      791.645     363.917    -329.835
  O      792.964     364.144    -329.311
  C      791.378     364.839    -331.045
  N      790.010     365.368    -331.039
  C      789.781     366.478    -330.238
  O      790.670     367.011    -329.558
  N      788.492     366.915    -330.183
  C      787.419     366.286    -330.729
  O      786.250     366.576    -330.449
  C      787.716     365.154    -331.619
  C      788.982     364.747    -331.724
  O      794.479     361.925    -335.613
  O      794.417     360.997    -333.228
  H      795.373     360.997    -333.407
  H      793.050     363.543    -328.542
  H      788.308     367.705    -329.559
  H      786.892     364.666    -332.126
  H      789.228     363.890    -332.337
  H      792.077     365.684    -331.050
  H      790.928     364.059    -329.015
  H      790.472     362.276    -330.559
  H      793.238     362.854    -331.765
  H      792.201     360.756    -332.549
  H      790.696     361.628    -332.964
  P      791.417     360.234    -329.207
  C      793.084     358.648    -330.354
  O      791.718     358.999    -330.181
  O      789.973     360.468    -328.917
  O      792.214     359.825    -327.876
  H      791.560     359.732    -327.139
  H      793.156     357.815    -331.022
  H      793.507     358.384    -329.407
  H      793.617     359.481    -330.763

 6  7  8  9  10  11  12  13  14  15  16  27  31  32  33  34  35 0
 6-311+G(2d,p)
 ****
 36  37 0
 6-311+G(2d,p)
 ****
 1  2  3  4  5  17  18  19  20  21  22  23  24  25 0
 3-21G
 ****
 26  28  29  30  38  39  40  41  42  43  44  45 0
 3-21G
 ****


