%nproc=1
%NoSave
%Mem=1900MB
#P OB98/GEN NMR

erre ene a

0 1
  C      -31.369      42.016    -138.731
  O      -32.065      42.747    -137.740
  H      -30.358      42.413    -138.852
  H      -31.303      40.972    -138.415
  H      -31.905      42.062    -139.683
  P      -32.296      44.308    -138.033
  C      -29.927      44.910    -137.164
  O      -30.838      44.942    -138.251
  C      -29.021      46.137    -137.202
  O      -28.041      45.999    -138.251
  C      -29.740      47.452    -137.482
  O      -30.367      47.969    -136.319
  C      -28.572      48.325    -137.920
  O      -27.847      48.782    -136.763
  C      -27.716      47.334    -138.722
  N      -27.637      50.358    -142.847
  C      -27.274      50.572    -141.564
  N      -27.304      49.712    -140.526
  C      -27.752      48.509    -140.922
  C      -28.137      48.132    -142.198
  C      -28.075      49.121    -143.192
  N      -28.514      48.907    -144.489
  N      -28.555      46.814    -142.213
  C      -28.439      46.412    -140.965
  N      -27.951      47.398    -140.150
  O      -32.749      44.873    -136.602
  O      -33.301      44.614    -139.092
  H      -28.511      49.100    -136.123
  H      -33.722      44.925    -136.572
  H      -26.914      51.572    -141.339
  H      -28.698      45.426    -140.606
  H      -26.644      47.483    -138.552
  H      -28.886      49.212    -138.477
  H      -30.446      47.355    -138.314
  H      -28.479      46.185    -136.247
  H      -29.313      44.006    -137.229
  H      -28.854      49.749    -144.945
  H      -29.068      48.067    -144.610
  H      -30.497      44.888    -136.229
  P      -31.931      48.316    -136.404
  C      -31.391      50.810    -136.823
  O      -32.055      49.645    -137.295
  O      -32.267      48.816    -134.922
  O      -32.813      47.184    -136.806
  H      -32.996      48.283    -134.551
  H      -31.555      51.616    -137.507
  H      -30.342      50.616    -136.746
  H      -31.777      51.075    -135.861

 6  7  8  9  10  11  12  13  14  15  25  28  32  33  34  35 0
 6-311+G(2d,p)
 ****
 36  39  40 0
 6-311+G(2d,p)
 ****
 1  2  3  4  5  16  17  18  19  20  21  22  23  24 0
 3-21G
 ****
 26  27  29  30  31  37  38  41  42  43  44  45  46  47  48 0
 3-21G
 ****


