%nproc=1
%NoSave
%Mem=1900MB
#P OB98/GEN NMR

erre ene a

0 1
  C      467.852     -79.888     127.840
  O      469.189     -79.606     127.495
  P      470.017     -80.602     126.546
  C      471.915     -80.531     128.284
  O      471.064     -81.359     127.496
  C      472.029     -81.087     129.699
  O      470.740     -81.528     130.193
  C      472.913     -82.322     129.810
  O      474.291     -82.162     129.556
  C      472.521     -82.846     131.182
  O      473.197     -82.142     132.223
  C      471.004     -82.527     131.209
  N      470.190     -83.729     131.018
  C      469.681     -84.311     132.171
  O      469.887     -83.872     133.303
  N      468.946     -85.451     131.993
  C      468.717     -86.080     130.801
  O      468.089     -87.123     130.716
  C      469.291     -85.424     129.618
  C      469.992     -84.296     129.775
  O      470.618     -79.972     125.335
  O      468.959     -81.758     126.218
  H      474.152     -82.333     132.132
  H      468.620     -82.236     126.999
  H      468.581     -85.899     132.817
  H      469.116     -85.886     128.655
  H      470.429     -83.797     128.915
  H      470.726     -82.078     132.172
  H      472.767     -83.908     131.297
  H      472.565     -83.062     129.076
  H      472.371     -80.286     130.358
  H      471.485     -79.525     128.329
  H      472.896     -80.454     127.805
  P      475.098     -83.036     128.484
  C      476.344     -84.284     130.386
  O      475.584     -84.386     129.198
  O      476.091     -82.308     127.636
  O      473.910     -83.573     127.547
  H      474.243     -83.681     126.637
  H      476.624     -85.292     130.707
  H      475.754     -83.817     131.177
  H      477.255     -83.708     130.210
  H      467.476     -79.112     128.474
  H      467.807     -80.824     128.356
  H      467.258     -79.942     126.952

 3  4  5  6  7  8  9  10  11  12  13  23  28  29  30  31  32 0
 6-311+G(2d,p)
 ****
 33  34 0
 6-311+G(2d,p)
 ****
 1  2  14  15  16  17  18  19  20  21  22  24  25  26  27 0
 3-21G
 ****
 35  36  37  38  39  40  41  42  43  44  45 0
 3-21G
 ****


