%nproc=1
%NoSave
%Mem=1900MB
#P OB98/GEN NMR

erre ene a

0 1
  C      556.081    -240.579     179.894
  O      556.661    -239.374     180.352
  H      556.384    -241.392     180.556
  H      556.432    -240.800     178.882
  H      554.988    -240.505     179.900
  P      556.251    -238.027     179.584
  C      555.882    -236.782     181.845
  O      556.562    -236.818     180.597
  C      556.500    -235.703     182.734
  O      557.693    -236.249     183.363
  C      556.917    -234.442     181.969
  O      556.671    -233.293     182.787
  C      558.412    -234.630     181.775
  O      559.121    -233.412     181.577
  C      558.787    -235.344     183.081
  N      560.048    -236.070     182.983
  C      561.220    -235.320     182.941
  O      561.273    -234.097     183.055
  N      562.375    -236.037     182.756
  C      562.468    -237.388     182.584
  O      563.529    -237.971     182.398
  C      561.192    -238.126     182.630
  C      560.063    -237.442     182.820
  O      554.653    -238.083     179.566
  O      556.836    -237.858     178.221
  H      554.334    -238.538     178.759
  H      560.076    -233.624     181.534
  H      563.235    -235.507     182.726
  H      561.231    -239.198     182.488
  H      559.107    -237.956     182.843
  H      558.836    -234.626     183.907
  H      558.600    -235.281     180.917
  H      556.396    -234.334     181.015
  H      555.795    -235.464     183.538
  H      555.979    -237.755     182.332
  H      554.823    -236.573     181.672
  P      555.705    -232.155     182.196
  C      554.254    -231.935     184.360
  O      555.172    -231.326     183.464
  O      554.449    -233.021     181.724
  O      556.354    -231.340     181.124
  H      554.243    -233.764     182.318
  H      554.007    -231.246     185.140
  H      554.698    -232.811     184.785
  H      553.365    -232.207     183.830

 6  7  8  9  10  11  12  13  14  15  16  27  31  32  33  34  35 0
 6-311+G(2d,p)
 ****
 36  37 0
 6-311+G(2d,p)
 ****
 1  2  3  4  5  17  18  19  20  21  22  23  24  25 0
 3-21G
 ****
 26  28  29  30  38  39  40  41  42  43  44  45 0
 3-21G
 ****


