%nproc=1
%NoSave
%Mem=1900MB
#P OB98/GEN NMR

erre ene a

0 1
  C      208.697     106.405    -208.651
  O      208.083     106.737    -209.885
  P      209.002     106.717    -211.202
  C      207.471     108.542    -212.251
  O      208.792     108.138    -211.920
  C      207.410     110.059    -212.420
  O      207.564     110.721    -211.150
  C      208.507     110.632    -213.307
  O      208.210     110.502    -214.688
  C      208.481     112.094    -212.894
  O      207.402     112.777    -213.560
  C      208.205     111.999    -211.388
  N      212.265     114.840    -210.367
  C      211.137     115.145    -211.103
  N      211.116     116.356    -211.695
  N      210.118     114.337    -211.240
  C      210.283     113.155    -210.596
  C      211.353     112.739    -209.835
  C      212.479     113.639    -209.702
  O      213.528     113.407    -209.110
  N      211.153     111.482    -209.336
  C      209.965     111.131    -209.784
  N      209.416     112.097    -210.592
  O      208.237     105.702    -212.171
  O      210.418     106.313    -210.969
  H      207.296     113.639    -213.110
  H      208.833     105.404    -212.884
  H      213.026     115.495    -210.296
  H      209.474     110.192    -209.571
  H      207.515     112.778    -211.048
  H      209.402     112.627    -213.155
  H      211.895     117.001    -211.682
  H      209.484     110.201    -213.057
  H      210.328     116.581    -212.292
  H      206.419     110.317    -212.818
  H      206.791     108.234    -211.453
  H      207.163     108.044    -213.178
  P      209.461     110.338    -215.680
  C      207.823     110.364    -217.699
  O      208.965     110.928    -217.087
  O      209.522     108.759    -215.928
  O      210.747     110.880    -215.154
  H      210.431     108.482    -216.156
  H      207.476     111.041    -218.486
  H      207.017     110.228    -216.975
  H      208.082     109.400    -218.149
  H      207.972     106.459    -207.866
  H      209.491     107.094    -208.451
  H      209.091     105.412    -208.705

 3  4  5  6  7  8  9  10  11  12  23  26  30  31 0
 6-311+G(2d,p)
 ****
 33  35  36  37  38 0
 6-311+G(2d,p)
 ****
 1  2  13  14  15  16  17  18  19  20  21  22  24  25 0
 3-21G
 ****
 27  28  29  32  34  39  40  41  42  43  44  45  46  47  48  49 0
 3-21G
 ****


