%nproc=1
%NoSave
%Mem=1900MB
#P OB98/GEN NMR

erre ene a

0 1
  C     -369.325    -334.963     213.021
  O     -369.520    -335.561     211.759
  P     -368.264    -336.025     210.871
  C     -368.857    -334.090     209.272
  O     -367.830    -334.725     210.032
  C     -368.663    -332.575     209.267
  O     -368.280    -332.104     210.578
  C     -367.577    -332.083     208.317
  O     -368.040    -332.099     206.975
  C     -367.296    -330.704     208.880
  O     -368.245    -329.742     208.399
  C     -367.465    -330.927     210.402
  N     -366.186    -331.042     211.092
  C     -365.752    -329.897     211.770
  O     -366.412    -328.858     211.732
  N     -364.542    -329.944     212.433
  C     -363.832    -331.024     212.400
  N     -362.644    -331.006     213.058
  C     -364.243    -332.243     211.675
  C     -365.416    -332.183     211.043
  O     -368.479    -337.269     210.070
  O     -367.087    -336.164     211.951
  H     -368.030    -328.896     208.855
  H     -367.199    -336.973     212.505
  H     -363.609    -333.120     211.662
  H     -365.792    -333.030     210.483
  H     -368.026    -330.094     210.847
  H     -366.301    -330.331     208.597
  H     -366.683    -332.711     208.422
  H     -369.626    -332.110     209.007
  H     -362.390    -330.135     213.522
  H     -369.825    -334.331     209.724
  H     -361.997    -331.779     213.070
  H     -368.851    -334.483     208.250
  P     -367.359    -333.075     205.911
  C     -366.931    -331.371     204.048
  O     -366.345    -332.216     205.025
  O     -368.310    -333.939     205.137
  O     -366.383    -333.983     206.801
  H     -366.471    -334.912     206.521
  H     -366.201    -330.611     203.758
  H     -367.820    -330.868     204.435
  H     -367.194    -331.955     203.170
  H     -370.274    -334.726     213.454
  H     -368.752    -334.067     212.906
  H     -368.801    -335.642     213.660

 3  4  5  6  7  8  9  10  11  12  13  23  27  28  29  30  32 0
 6-311+G(2d,p)
 ****
 34  35 0
 6-311+G(2d,p)
 ****
 1  2  14  15  16  17  18  19  20  21  22  24  25  26 0
 3-21G
 ****
 31  33  36  37  38  39  40  41  42  43  44  45  46 0
 3-21G
 ****


