%nproc=1
%NoSave
%Mem=1900MB
#P OB98/GEN NMR

erre ene a

0 1
  C      215.702      39.293    -611.162
  O      215.172      40.330    -611.963
  H      215.681      39.610    -610.119
  H      216.736      39.085    -611.449
  H      215.095      38.390    -611.271
  P      215.217      40.103    -613.551
  C      214.834      42.684    -613.530
  O      215.486      41.578    -614.134
  C      215.168      43.967    -614.288
  O      216.522      44.391    -613.997
  C      215.108      43.837    -615.806
  O      213.790      43.853    -616.321
  C      215.891      45.077    -616.204
  O      215.073      46.243    -616.011
  C      217.048      45.032    -615.186
  N      218.221      44.304    -615.683
  C      219.291      45.074    -616.146
  O      219.237      46.303    -616.126
  N      220.398      44.435    -616.652
  C      220.444      43.140    -616.683
  N      221.561      42.564    -617.197
  C      219.340      42.287    -616.193
  C      218.274      42.926    -615.717
  O      213.686      39.848    -613.935
  O      216.161      39.054    -614.035
  H      214.801      46.248    -615.072
  H      213.579      39.842    -614.921
  H      219.416      41.210    -616.253
  H      217.426      42.365    -615.342
  H      217.363      46.042    -614.904
  H      216.200      45.077    -617.247
  H      215.653      42.947    -616.157
  H      214.493      44.750    -613.927
  H      222.273      43.174    -617.578
  H      215.179      42.760    -612.491
  H      221.624      41.573    -617.400
  H      213.752      42.530    -613.536
  P      213.528      43.083    -617.703
  C      211.186      44.226    -617.690
  O      212.330      43.850    -618.446
  O      212.855      41.710    -617.241
  O      214.756      42.857    -618.539
  H      213.118      40.974    -617.829
  H      210.485      44.724    -618.327
  H      211.481      44.885    -616.900
  H      210.731      43.352    -617.273

 6  7  8  9  10  11  12  13  14  15  16  26  30  31  32  33  35 0
 6-311+G(2d,p)
 ****
 37  38 0
 6-311+G(2d,p)
 ****
 1  2  3  4  5  17  18  19  20  21  22  23  24  25 0
 3-21G
 ****
 27  28  29  34  36  39  40  41  42  43  44  45  46 0
 3-21G
 ****


