%nproc=1
%NoSave
%Mem=1900MB
#P OB98/GEN NMR

erre ene a

0 1
  C       58.721     -35.641       0.407
  O       58.615     -34.333      -0.119
  H       58.018     -35.743       1.237
  H       59.735     -35.804       0.783
  H       58.480     -36.388      -0.354
  P       59.310     -34.066      -1.541
  C       61.609     -33.528      -0.462
  O       60.876     -34.364      -1.345
  C       63.023     -34.068      -0.276
  O       62.985     -35.398       0.283
  C       63.833     -34.166      -1.565
  O       64.431     -32.922      -1.903
  C       64.886     -35.184      -1.158
  O       65.887     -34.545      -0.336
  C       64.067     -36.169      -0.313
  N       65.069     -40.503      -2.747
  C       65.931     -39.598      -2.159
  N       67.249     -39.885      -2.238
  N       65.541     -38.507      -1.552
  C       64.198     -38.338      -1.571
  C       63.243     -39.159      -2.127
  C       63.688     -40.369      -2.780
  O       62.963     -41.209      -3.307
  N       61.980     -38.658      -1.949
  C       62.173     -37.523      -1.307
  N       63.501     -37.281      -1.056
  O       59.240     -32.470      -1.673
  O       58.660     -34.736      -2.703
  H       65.499     -34.433       0.551
  H       58.513     -32.237      -2.281
  H       65.424     -41.322      -3.210
  H       61.389     -36.847      -0.995
  H       64.653     -36.600       0.507
  H       65.408     -35.615      -2.014
  H       67.619     -40.695      -2.709
  H       63.235     -34.567      -2.391
  H       67.898     -39.236      -1.810
  H       63.534     -33.424       0.453
  H       61.099     -33.498       0.506
  H       61.647     -32.517      -0.880
  P       64.492     -32.506      -3.451
  C       67.006     -33.142      -3.447
  O       65.748     -33.275      -4.093
  O       64.979     -30.983      -3.385
  O       63.208     -32.636      -4.196
  H       64.256     -30.390      -3.670
  H       67.743     -33.704      -3.982
  H       66.933     -33.511      -2.445
  H       67.289     -32.110      -3.427

 6  7  8  9  10  11  12  13  14  15  26  29  33  34 0
 6-311+G(2d,p)
 ****
 36  38  39  40  41 0
 6-311+G(2d,p)
 ****
 1  2  3  4  5  16  17  18  19  20  21  22  23  24  25 0
 3-21G
 ****
 27  28  30  31  32  35  37  42  43  44  45  46  47 0
 3-21G
 ****
 48  49 0
 3-21G
 ****


