%nproc=1
%NoSave
%Mem=1900MB
#P OB98/GEN NMR

erre ene a

0 1
  C     -458.730      81.725    -432.653
  O     -458.288      81.200    -431.422
  P     -458.059      79.623    -431.244
  C     -459.421      77.515    -431.816
  O     -459.231      78.902    -432.073
  C     -460.898      77.228    -431.553
  O     -461.718      77.632    -432.678
  C     -461.219      75.752    -431.361
  O     -460.692      75.116    -430.223
  C     -462.734      75.758    -431.517
  O     -463.378      76.158    -430.309
  C     -462.926      76.833    -432.618
  N     -463.248      76.236    -433.911
  C     -464.445      76.643    -434.487
  O     -465.212      77.452    -433.968
  N     -464.763      76.059    -435.684
  C     -464.037      75.095    -436.323
  O     -464.400      74.582    -437.373
  C     -462.789      74.695    -435.656
  C     -462.455      75.272    -434.501
  O     -457.919      79.155    -429.836
  O     -456.775      79.333    -432.157
  H     -464.340      76.149    -430.473
  H     -456.884      79.557    -433.099
  H     -465.632      76.330    -436.113
  H     -462.182      73.941    -436.143
  H     -461.538      74.991    -433.991
  H     -463.740      77.512    -432.343
  H     -463.119      74.766    -431.774
  H     -460.815      75.203    -432.221
  H     -461.216      77.827    -430.693
  H     -458.841      77.234    -430.932
  H     -459.047      76.932    -432.663
  P     -460.545      73.524    -430.091
  C     -462.135      71.494    -429.832
  O     -462.012      72.889    -429.987
  O     -459.511      73.023    -429.139
  O     -460.116      73.118    -431.583
  H     -459.543      72.331    -431.547
  H     -463.197      71.233    -429.825
  H     -461.693      71.174    -428.885
  H     -461.653      70.970    -430.664
  H     -458.822      82.788    -432.575
  H     -459.681      81.302    -432.901
  H     -458.022      81.484    -433.418

 3  4  5  6  7  8  9  10  11  12  13  23  28  29  30  31  32 0
 6-311+G(2d,p)
 ****
 33  34 0
 6-311+G(2d,p)
 ****
 1  2  14  15  16  17  18  19  20  21  22  24  25  26  27 0
 3-21G
 ****
 35  36  37  38  39  40  41  42  43  44  45 0
 3-21G
 ****


