%nproc=1
%NoSave
%Mem=1900MB
#P OB98/GEN NMR

erre ene a

0 1
  C      712.545     368.056      72.773
  O      713.839     368.350      73.258
  P      714.482     369.793      72.992
  C      716.368     369.195      71.337
  O      716.040     369.583      72.676
  C      717.882     369.209      71.139
  O      718.385     370.562      71.191
  C      718.656     368.443      72.210
  O      718.559     367.049      71.991
  C      720.054     369.026      72.036
  O      720.736     368.387      70.945
  C      719.743     370.493      71.692
  N      723.114     373.087      74.503
  C      723.271     372.161      73.530
  N      722.324     371.484      72.853
  C      721.096     371.831      73.293
  C      720.783     372.733      74.300
  C      721.852     373.401      74.912
  N      721.707     374.390      75.859
  N      719.408     372.786      74.479
  C      718.915     371.939      73.604
  N      719.894     371.384      72.819
  O      714.176     370.830      74.016
  O      713.880     370.214      71.567
  H      721.541     368.901      70.759
  H      713.367     371.040      71.665
  H      724.302     371.946      73.255
  H      717.865     371.700      73.489
  H      720.389     370.867      70.892
  H      720.669     368.902      72.926
  H      718.278     368.702      73.205
  H      718.098     368.810      70.139
  H      715.896     369.909      70.658
  H      722.535     374.900      76.116
  H      720.800     374.833      75.939
  H      715.967     368.195      71.144
  P      718.100     366.084      73.183
  C      720.107     364.515      73.516
  O      718.823     364.667      72.944
  O      716.632     366.012      73.423
  O      718.883     366.664      74.458
  H      718.337     366.517      75.258
  H      720.849     365.038      72.900
  H      720.353     363.459      73.546
  H      720.132     364.916      74.530
  H      712.282     367.054      73.043
  H      712.533     368.153      71.708
  H      711.840     368.737      73.202

 3  4  5  6  7  8  9  10  11  12  22  25  29  30  31  32 0
 6-311+G(2d,p)
 ****
 33  36  37 0
 6-311+G(2d,p)
 ****
 1  2  13  14  15  16  17  18  19  20  21  23  24  26 0
 3-21G
 ****
 27  28  34  35  38  39  40  41  42  43  44  45  46  47  48 0
 3-21G
 ****


