%nproc=1
%NoSave
%Mem=1900MB
#P OB98/GEN NMR

erre ene a

0 1
  C      197.347     171.617      22.980
  O      197.907     171.639      24.295
  P      197.276     172.545      25.477
  C      198.337     174.662      24.480
  O      197.151     174.078      25.003
  C      198.418     176.177      24.691
  O      197.471     176.873      23.832
  C      198.121     176.649      26.127
  O      198.910     177.829      26.324
  C      196.647     177.001      26.057
  O      196.212     177.841      27.117
  C      196.573     177.626      24.674
  N      191.857     179.607      25.103
  C      193.033     179.948      25.662
  N      194.250     179.399      25.473
  C      194.197     178.421      24.565
  C      193.078     177.959      23.889
  C      191.851     178.590      24.196
  N      190.644     178.203      23.657
  N      193.402     176.909      23.042
  C      194.696     176.737      23.224
  N      195.226     177.624      24.122
  O      197.944     172.366      26.797
  O      195.751     172.059      25.560
  H      195.227     177.829      27.120
  H      195.511     171.932      26.499
  H      192.984     180.777      26.375
  H      195.297     175.973      22.741
  H      196.927     178.663      24.694
  H      196.053     176.064      26.111
  H      198.350     175.886      26.886
  H      199.419     176.508      24.383
  H      198.396     174.451      23.395
  H      189.812     178.656      24.009
  H      190.600     177.377      23.087
  H      199.204     174.180      24.955
  P      200.142     177.869      27.349
  C      198.746     178.756      29.312
  O      199.528     177.668      28.818
  O      201.050     179.051      27.198
  O      200.920     176.488      27.095
  H      201.828     176.555      27.438
  H      199.409     179.580      29.628
  H      198.149     178.409      30.173
  H      198.061     179.115      28.541
  H      197.916     170.956      22.361
  H      197.371     172.603      22.565
  H      196.334     171.276      23.029

 3  4  5  6  7  8  9  10  11  12  22  25  29  30  31  32 0
 6-311+G(2d,p)
 ****
 33  36  37 0
 6-311+G(2d,p)
 ****
 1  2  13  14  15  16  17  18  19  20  21  23  24  26 0
 3-21G
 ****
 27  28  34  35  38  39  40  41  42  43  44  45  46  47  48 0
 3-21G
 ****


