%nproc=1
%NoSave
%Mem=1900MB
#P OB98/GEN NMR

erre ene a

0 1
  C      -23.879     -87.274       3.165
  O      -25.003     -87.942       2.618
  P      -25.237     -89.475       3.033
  C      -27.195     -88.750       4.635
  O      -25.964     -89.433       4.461
  C      -28.257     -89.706       5.183
  O      -28.640     -90.653       4.164
  C      -27.800     -90.548       6.368
  O      -27.786     -89.800       7.573
  C      -28.818     -91.681       6.334
  O      -30.050     -91.263       6.945
  C      -29.017     -91.882       4.818
  N      -28.269     -93.018       4.284
  C      -28.689     -94.279       4.696
  O      -29.633     -94.457       5.464
  N      -27.969     -95.336       4.206
  C      -26.858     -95.256       3.418
  O      -26.225     -96.234       3.043
  C      -26.443     -93.895       3.042
  C      -27.156     -92.857       3.485
  O      -23.736     -89.924       3.353
  O      -25.926     -90.270       1.977
  H      -23.186     -89.172       3.636
  H      -30.582     -92.072       7.076
  H      -28.268     -96.262       4.473
  H      -25.561     -93.791       2.424
  H      -26.859     -91.848       3.226
  H      -30.080     -92.033       4.593
  H      -28.473     -92.573       6.868
  H      -26.798     -90.950       6.174
  H      -29.143     -89.116       5.450
  H      -27.522     -88.354       3.669
  H      -27.042     -87.912       5.322
  P      -26.788     -90.315       8.726
  C      -24.654     -89.067       7.880
  O      -25.319     -90.292       8.090
  O      -27.168     -91.868       8.794
  O      -26.941     -89.584      10.020
  H      -27.292     -92.265       7.916
  H      -23.582     -89.261       7.789
  H      -24.819     -88.375       8.709
  H      -25.010     -88.613       6.951
  H      -23.851     -86.268       2.803
  H      -22.984     -87.783       2.873
  H      -23.953     -87.267       4.232

 3  4  5  6  7  8  9  10  11  12  13  24  28  29  30  31  32 0
 6-311+G(2d,p)
 ****
 33  34 0
 6-311+G(2d,p)
 ****
 1  2  14  15  16  17  18  19  20  21  22  23  25  26  27 0
 3-21G
 ****
 35  36  37  38  39  40  41  42  43  44  45 0
 3-21G
 ****


