%nproc=1
%NoSave
%Mem=1900MB
#P OB98/GEN NMR

erre ene a

0 1
  C     -121.426     137.127     162.315
  O     -121.372     138.312     163.080
  P     -121.993     138.394     164.557
  C     -119.909     137.100     165.342
  O     -121.329     137.176     165.377
  C     -119.285     137.805     166.551
  O     -119.766     137.189     167.778
  C     -117.751     137.776     166.583
  O     -117.336     139.007     167.182
  C     -117.467     136.612     167.515
  O     -116.150     136.644     168.055
  C     -118.603     136.775     168.533
  N     -118.848     135.549     169.286
  C     -117.859     135.158     170.192
  O     -116.807     135.799     170.274
  N     -118.053     134.028     170.948
  C     -119.103     133.292     170.732
  N     -119.249     132.187     171.510
  C     -120.109     133.598     169.694
  C     -119.925     134.734     169.031
  O     -123.482     138.447     164.615
  O     -121.278     139.673     165.199
  H     -115.510     136.557     167.312
  H     -121.692     140.508     164.851
  H     -120.932     132.926     169.517
  H     -120.615     135.042     168.250
  H     -118.371     137.578     169.247
  H     -117.580     135.665     166.970
  H     -117.292     137.647     165.601
  H     -119.637     138.844     166.554
  H     -118.543     132.024     172.219
  H     -119.565     137.594     164.431
  H     -120.064     131.595     171.486
  H     -119.592     136.053     165.299
  P     -115.901     139.651     166.863
  C     -116.890     140.635     164.720
  O     -115.832     139.883     165.281
  O     -114.735     138.909     167.441
  O     -115.994     141.142     167.446
  H     -115.095     141.514     167.522
  H     -116.602     140.966     163.713
  H     -117.117     141.512     165.330
  H     -117.787     140.004     164.641
  H     -120.956     137.292     161.368
  H     -122.447     136.847     162.162
  H     -120.915     136.343     162.835

 3  4  5  6  7  8  9  10  11  12  13  23  27  28  29  30  32 0
 6-311+G(2d,p)
 ****
 34  35 0
 6-311+G(2d,p)
 ****
 1  2  14  15  16  17  18  19  20  21  22  24  25  26 0
 3-21G
 ****
 31  33  36  37  38  39  40  41  42  43  44  45  46 0
 3-21G
 ****


