%nproc=1
%NoSave
%Mem=1900MB
#P OB98/GEN NMR

erre ene a

0 1
  C      688.576     -15.675    -311.843
  O      687.974     -16.155    -310.667
  H      689.116     -14.751    -311.611
  H      687.806     -15.458    -312.592
  H      689.292     -16.403    -312.254
  P      687.430     -17.666    -310.638
  C      685.003     -17.272    -309.833
  O      686.296     -17.736    -309.495
  C      684.114     -17.131    -308.592
  O      683.868     -18.444    -308.032
  C      684.832     -16.310    -307.513
  O      683.915     -15.614    -306.665
  C      685.545     -17.379    -306.690
  O      685.884     -16.947    -305.372
  C      684.525     -18.515    -306.750
  N      687.740     -21.440    -304.084
  C      687.526     -20.085    -303.999
  N      688.283     -19.411    -303.104
  N      686.659     -19.444    -304.735
  C      686.039     -20.238    -305.651
  C      686.179     -21.580    -305.848
  C      687.117     -22.289    -304.997
  O      687.366     -23.497    -305.034
  N      685.395     -22.035    -306.877
  C      684.771     -20.961    -307.302
  N      685.117     -19.829    -306.579
  O      688.641     -18.488    -309.978
  O      687.026     -18.237    -311.959
  H      686.583     -17.525    -305.053
  H      688.596     -19.427    -310.250
  H      688.406     -21.896    -303.475
  H      684.055     -20.927    -308.116
  H      683.777     -18.396    -305.963
  H      686.490     -17.615    -307.200
  H      689.084     -19.833    -302.631
  H      685.537     -15.598    -307.945
  H      688.348     -18.397    -303.219
  H      683.141     -16.714    -308.859
  H      684.569     -18.001    -310.531
  H      685.072     -16.317    -310.364
  P      683.805     -14.018    -306.834
  C      683.907     -13.493    -304.269
  O      683.185     -13.432    -305.490
  O      682.649     -13.843    -307.933
  O      685.086     -13.375    -307.277
  H      683.040     -13.593    -308.791
  H      683.325     -13.050    -303.488
  H      684.829     -12.960    -304.373
  H      684.111     -14.515    -304.026

 6  7  8  9  10  11  12  13  14  15  26  29  33  34 0
 6-311+G(2d,p)
 ****
 36  38  39  40  41 0
 6-311+G(2d,p)
 ****
 1  2  3  4  5  16  17  18  19  20  21  22  23  24  25 0
 3-21G
 ****
 27  28  30  31  32  35  37  42  43  44  45  46  47 0
 3-21G
 ****
 48  49 0
 3-21G
 ****


