%nproc=1
%NoSave
%Mem=1900MB
#P OB98/GEN NMR

erre ene a

0 1
  C      269.358      -7.523      75.975
  O      270.600      -7.960      75.438
  P      270.600      -9.254      74.493
  C      271.333     -10.905      76.357
  O      270.317     -10.526      75.438
  C      271.008     -12.249      77.014
  O      269.682     -12.179      77.604
  C      271.017     -13.445      76.054
  O      271.465     -14.583      76.798
  C      269.544     -13.622      75.717
  O      269.253     -14.932      75.235
  C      268.911     -13.277      77.064
  N      264.240     -14.873      75.729
  C      265.429     -15.513      75.774
  N      266.631     -15.018      76.142
  C      266.529     -13.725      76.485
  C      265.389     -12.933      76.459
  C      264.195     -13.561      76.060
  N      262.982     -12.915      76.025
  N      265.685     -11.645      76.856
  C      266.977     -11.660      77.119
  N      267.520     -12.898      76.933
  O      272.149      -9.410      74.115
  O      269.750      -9.159      73.275
  H      269.432     -14.951      74.275
  H      272.283      -9.214      73.167
  H      265.410     -16.560      75.479
  H      267.557     -10.805      77.443
  H      268.970     -14.110      77.773
  H      269.252     -12.904      74.943
  H      271.635     -13.303      75.166
  H      271.718     -12.412      77.836
  H      271.405     -10.142      77.138
  H      262.149     -13.464      75.860
  H      262.902     -11.996      76.447
  H      272.294     -10.964      75.838
  P      272.463     -15.591      76.051
  C      270.479     -17.253      75.845
  O      271.554     -16.594      75.199
  O      273.028     -16.504      77.241
  O      273.567     -14.913      75.308
  H      273.918     -16.834      77.018
  H      269.664     -17.386      75.129
  H      270.106     -16.675      76.700
  H      270.815     -18.231      76.194
  H      269.517      -6.655      76.581
  H      268.934      -8.303      76.573
  H      268.689      -7.282      75.176

 3  4  5  6  7  8  9  10  11  12  22  25  29  30  31  32 0
 6-311+G(2d,p)
 ****
 33  36  37 0
 6-311+G(2d,p)
 ****
 1  2  13  14  15  16  17  18  19  20  21  23  24  26 0
 3-21G
 ****
 27  28  34  35  38  39  40  41  42  43  44  45  46  47  48 0
 3-21G
 ****


