%nproc=1
%NoSave
%Mem=1900MB
#P OB98/GEN NMR

erre ene a

0 1
  C      488.063     491.465     784.808
  O      487.620     491.701     786.127
  H      488.716     490.584     784.819
  H      488.633     492.319     784.442
  H      487.217     491.261     784.140
  P      486.637     492.938     786.392
  C      485.843     491.718     788.549
  O      486.382     492.910     787.994
  C      486.445     491.455     789.929
  O      486.444     492.665     790.736
  C      485.698     490.425     790.764
  O      485.886     489.099     790.335
  C      486.347     490.685     792.122
  O      487.663     490.120     792.142
  C      486.401     492.240     792.130
  N      485.242     492.843     792.785
  C      485.147     492.659     794.182
  O      486.022     492.012     794.798
  N      484.079     493.195     794.852
  C      483.152     493.822     794.203
  N      482.095     494.318     794.908
  C      483.189     494.019     792.729
  C      484.255     493.502     792.104
  O      485.410     493.001     785.551
  O      487.574     494.229     786.248
  H      487.557     489.158     791.932
  H      487.015     495.036     786.391
  H      482.377     494.528     792.226
  H      484.341     493.609     791.023
  H      487.317     492.593     792.608
  H      485.772     490.251     792.956
  H      484.627     490.675     790.832
  H      487.494     491.171     789.773
  H      482.099     494.170     795.911
  H      486.057     490.894     787.866
  H      481.303     494.767     794.472
  H      484.747     491.819     788.651
  P      484.937     487.980     790.995
  C      485.129     487.045     788.553
  O      484.818     486.787     789.922
  O      483.488     488.656     790.975
  O      485.347     487.526     792.371
  H      483.277     489.045     791.853
  H      484.998     486.149     787.983
  H      486.144     487.373     788.474
  H      484.478     487.806     788.177

 6  7  8  9  10  11  12  13  14  15  16  26  30  31  32  33  35 0
 6-311+G(2d,p)
 ****
 37  38 0
 6-311+G(2d,p)
 ****
 1  2  3  4  5  17  18  19  20  21  22  23  24  25 0
 3-21G
 ****
 27  28  29  34  36  39  40  41  42  43  44  45  46 0
 3-21G
 ****


