%nproc=1
%NoSave
%Mem=1900MB
#P OB98/GEN NMR

erre ene a

0 1
  C      275.710    -242.879    -321.674
  O      276.850    -243.692    -321.956
  P      277.103    -244.964    -321.006
  C      278.170    -243.624    -319.024
  O      277.077    -244.398    -319.500
  C      277.688    -242.610    -317.973
  O      278.823    -242.199    -317.141
  C      277.044    -241.344    -318.550
  O      275.976    -240.983    -317.667
  C      278.170    -240.321    -318.464
  O      277.675    -238.986    -318.476
  C      278.844    -240.758    -317.164
  N      280.211    -240.238    -317.031
  C      280.353    -238.872    -316.821
  O      279.401    -238.091    -316.821
  N      281.637    -238.421    -316.659
  C      282.773    -239.181    -316.765
  O      283.896    -238.725    -316.607
  C      282.561    -240.600    -317.102
  C      281.308    -241.054    -317.217
  O      278.647    -245.267    -321.289
  O      276.166    -246.098    -321.288
  H      279.183    -244.468    -321.420
  H      277.088    -238.857    -317.701
  H      281.758    -237.436    -316.471
  H      283.439    -241.217    -317.244
  H      281.125    -242.089    -317.488
  H      278.266    -240.405    -316.296
  H      278.846    -240.447    -319.315
  H      276.661    -241.491    -319.559
  H      276.979    -243.125    -317.310
  H      278.625    -243.079    -319.851
  H      278.934    -244.296    -318.611
  P      274.477    -241.438    -318.056
  C      273.799    -239.122    -319.087
  O      274.009    -240.511    -319.274
  O      273.670    -240.839    -316.812
  O      274.288    -242.914    -318.217
  H      273.915    -239.916    -316.604
  H      273.718    -238.645    -320.061
  H      274.626    -238.668    -318.530
  H      272.861    -238.965    -318.536
  H      275.663    -242.074    -322.378
  H      275.791    -242.482    -320.684
  H      274.822    -243.471    -321.750

 3  4  5  6  7  8  9  10  11  12  13  24  28  29  30  31  32 0
 6-311+G(2d,p)
 ****
 33  34 0
 6-311+G(2d,p)
 ****
 1  2  14  15  16  17  18  19  20  21  22  23  25  26  27 0
 3-21G
 ****
 35  36  37  38  39  40  41  42  43  44  45 0
 3-21G
 ****


