%nproc=1
%NoSave
%Mem=1900MB
#P OB98/GEN NMR

erre ene a

0 1
  C      211.764      73.733    -899.102
  O      212.387      74.643    -898.202
  P      211.511      75.911    -897.732
  C      211.109      74.999    -895.322
  O      210.530      75.411    -896.562
  C      210.125      75.204    -894.172
  O      209.788      76.594    -894.022
  C      208.786      74.491    -894.362
  O      208.869      73.118    -894.042
  C      207.915      75.230    -893.352
  O      208.119      74.680    -892.042
  C      208.472      76.668    -893.422
  N      205.385      80.695    -893.362
  C      206.042      80.069    -892.322
  N      205.868      80.598    -891.092
  N      206.796      79.003    -892.472
  C      206.897      78.602    -893.762
  C      206.300      79.135    -894.882
  C      205.443      80.289    -894.692
  O      204.816      80.870    -895.572
  N      206.657      78.457    -896.012
  C      207.483      77.524    -895.592
  N      207.648      77.557    -894.222
  O      210.517      76.137    -898.972
  O      212.317      77.132    -897.432
  H      209.090      74.660    -891.892
  H      210.237      77.065    -899.012
  H      204.814      81.503    -893.192
  H      207.986      76.806    -896.222
  H      208.589      77.107    -892.422
  H      206.848      75.146    -893.562
  H      205.361      81.449    -890.912
  H      208.401      74.652    -895.372
  H      206.372      80.166    -890.312
  H      210.605      74.859    -893.252
  H      212.013      75.574    -895.132
  H      211.402      73.942    -895.402
  P      208.412      72.067    -895.162
  C      210.355      70.388    -894.862
  O      209.759      71.369    -895.672
  O      207.979      73.014    -896.392
  O      207.302      71.154    -894.742
  H      207.290      72.571    -896.922
  H      209.615      69.704    -894.432
  H      210.918      70.875    -894.052
  H      211.062      69.802    -895.462
  H      212.444      72.941    -899.336
  H      211.494      74.248    -900.000
  H      210.886      73.326    -898.646

 3  4  5  6  7  8  9  10  11  12  23  26  30  31  33  0
 6-311+G(2d,p)
 ****
 35  36  37  38 0
 6-311+G(2d,p)
 ****
 1  2  13  14  15  16  17  18  19  20  21  22  24  25  27  28  29 0
 3-21G
 ****
 32  34  39  40  41  42  43  44  45  46  47  48  49 0
 3-21G
 ****


