%nproc=1
%NoSave
%Mem=1900MB
#P OB98/GEN NMR

erre ene a

0 1
  C      103.388    -169.051      35.650
  O      104.649    -168.469      35.295
  P      104.988    -167.040      35.938
  C      107.105    -167.517      37.368
  O      106.574    -166.957      36.172
  C      108.577    -167.872      37.171
  O      108.744    -168.984      36.262
  C      109.401    -166.737      36.570
  O      109.666    -165.733      37.541
  C      110.633    -167.501      36.095
  O      111.521    -167.759      37.195
  C      110.021    -168.819      35.599
  N      112.368    -168.666      31.053
  C      112.840    -168.603      32.317
  N      112.151    -168.646      33.477
  C      110.837    -168.788      33.239
  C      110.205    -168.875      32.007
  C      111.035    -168.805      30.872
  N      110.546    -168.859      29.582
  N      108.841    -169.012      32.166
  C      108.649    -168.987      33.473
  N      109.826    -168.864      34.162
  O      104.389    -167.147      37.420
  O      104.398    -165.890      35.187
  H      112.208    -168.381      36.876
  H      103.590    -166.595      37.496
  H      113.918    -168.493      32.407
  H      107.683    -169.053      33.959
  H      110.638    -169.686      35.869
  H      111.202    -166.959      35.333
  H      108.874    -166.301      35.713
  H      108.994    -168.159      38.151
  H      106.543    -168.409      37.653
  H      111.195    -168.721      28.825
  H      109.546    -168.874      29.441
  H      106.978    -166.792      38.181
  P      110.104    -164.284      37.002
  C      107.911    -163.189      37.768
  O      109.309    -163.271      37.971
  O      109.288    -164.182      35.635
  O      111.575    -164.066      36.911
  H      108.364    -164.472      35.745
  H      107.489    -162.496      38.507
  H      107.449    -164.175      37.899
  H      107.697    -162.809      36.761
  H      103.281    -169.996      35.160
  H      102.596    -168.400      35.345
  H      103.346    -169.192      36.710

 3  4  5  6  7  8  9  10  11  12  22  25  29  30  31  32 0
 6-311+G(2d,p)
 ****
 33  36  37 0
 6-311+G(2d,p)
 ****
 1  2  13  14  15  16  17  18  19  20  21  23  24  26 0
 3-21G
 ****
 27  28  34  35  38  39  40  41  42  43  44  45  46  47  48 0
 3-21G
 ****


