%nproc=1
%NoSave
%Mem=1900MB
#P OB98/GEN NMR

erre ene a

0 1
  C      -34.544     341.423     608.678
  O      -35.393     341.489     609.806
  H      -35.161     341.393     607.777
  H      -33.929     340.518     608.715
  H      -33.904     342.309     608.639
  P      -34.679     341.508     611.242
  C      -35.662     343.845     611.694
  O      -35.589     342.492     612.128
  C      -36.828     344.563     612.377
  O      -38.058     344.205     611.695
  C      -36.991     344.190     613.854
  O      -37.380     345.350     614.594
  C      -38.133     343.187     613.847
  O      -38.825     343.142     615.092
  C      -38.978     343.691     612.674
  N      -42.418     340.077     613.755
  C      -41.891     341.073     614.499
  N      -40.988     342.008     614.125
  C      -40.667     341.862     612.824
  C      -41.116     340.891     611.948
  C      -42.031     339.961     612.466
  N      -42.550     338.923     611.721
  N      -40.520     341.052     610.710
  C      -39.735     342.106     610.835
  N      -39.780     342.622     612.105
  O      -33.218     341.818     611.238
  O      -35.070     340.066     611.820
  H      -39.648     342.622     614.969
  H      -36.009     339.858     611.650
  H      -42.235     341.130     615.529
  H      -39.115     342.526     610.050
  H      -39.664     344.493     612.971
  H      -37.739     342.187     613.639
  H      -36.080     343.765     614.282
  H      -36.700     345.646     612.250
  H      -35.799     343.888     610.606
  H      -43.215     338.306     612.163
  H      -42.290     338.830     610.750
  H      -34.717     344.334     611.947
  P      -37.288     345.298     616.195
  C      -35.169     346.770     616.322
  O      -36.533     346.621     616.707
  O      -36.804     344.016     616.783
  O      -38.807     345.586     616.631
  H      -39.018     345.043     617.417
  H      -34.783     347.684     616.723
  H      -35.100     346.791     615.254
  H      -34.600     345.947     616.700

 6  7  8  9  10  11  12  13  14  15  25  28  32  33  34  35 0
 6-311+G(2d,p)
 ****
 36  39  40 0
 6-311+G(2d,p)
 ****
 1  2  3  4  5  16  17  18  19  20  21  22  23  24 0
 3-21G
 ****
 26  27  29  30  31  37  38  41  42  43  44  45  46  47 0
 3-21G
 ****
 48 0
 3-21G
 ****


