%nproc=1
%NoSave
%Mem=1900MB
#P OB98/GEN NMR

erre ene a

0 1
  C      447.214     -60.006     -80.721
  O      446.351     -58.986     -81.230
  P      444.860     -58.883     -80.637
  C      443.154     -60.005     -82.234
  O      444.023     -60.176     -81.113
  C      442.185     -61.191     -82.356
  O      442.917     -62.360     -82.799
  C      441.505     -61.598     -81.033
  O      440.274     -60.965     -80.681
  C      441.179     -63.065     -81.314
  O      439.939     -63.158     -82.060
  C      442.340     -63.546     -82.188
  N      443.190     -67.424     -78.961
  C      442.058     -66.949     -79.540
  N      441.915     -65.912     -80.390
  C      443.105     -65.347     -80.644
  C      444.349     -65.704     -80.127
  C      444.365     -66.807     -79.238
  N      445.515     -67.274     -78.650
  N      445.336     -64.882     -80.614
  C      444.704     -64.016     -81.392
  N      443.354     -64.261     -81.454
  O      444.179     -57.571     -80.831
  O      445.094     -59.188     -79.079
  H      439.240     -62.835     -81.467
  H      444.490     -58.619     -78.554
  H      441.134     -67.478     -79.280
  H      445.184     -63.196     -81.922
  H      442.004     -64.197     -83.002
  H      441.035     -63.640     -80.399
  H      442.208     -61.532     -80.200
  H      441.415     -60.958     -83.107
  H      443.751     -59.926     -83.153
  H      445.431     -68.037     -77.995
  H      446.387     -66.796     -78.811
  H      442.644     -59.041     -82.107
  P      440.077     -60.274     -79.248
  C      438.830     -62.394     -78.316
  O      439.923     -61.492     -78.206
  O      438.982     -59.255     -79.182
  O      441.535     -59.705     -78.931
  H      442.204     -60.396     -78.759
  H      439.023     -63.259     -77.669
  H      438.723     -62.751     -79.346
  H      437.908     -61.902     -77.996
  H      448.164     -59.946     -81.210
  H      446.778     -60.966     -80.904
  H      447.346     -59.869     -79.668

 3  4  5  6  7  8  9  10  11  12  22  25  29  30  31  32 0
 6-311+G(2d,p)
 ****
 33  36  37 0
 6-311+G(2d,p)
 ****
 1  2  13  14  15  16  17  18  19  20  21  23  24  26 0
 3-21G
 ****
 27  28  34  35  38  39  40  41  42  43  44  45  46  47  48 0
 3-21G
 ****


