%nproc=1
%NoSave
%Mem=1900MB
#P OB98/GEN NMR

erre ene a

0 1
  C     -921.361     584.135    -659.413
  O     -921.472     582.871    -658.751
  P     -920.174     582.251    -658.040
  C     -921.184     581.075    -655.976
  O     -920.446     582.198    -656.455
  C     -922.652     581.447    -655.735
  O     -923.274     581.958    -656.937
  C     -923.503     580.266    -655.312
  O     -923.245     579.909    -653.961
  C     -924.899     580.787    -655.587
  O     -925.367     581.610    -654.496
  C     -924.683     581.655    -656.845
  N     -925.156     581.026    -658.074
  C     -926.541     580.789    -658.142
  O     -927.272     581.078    -657.196
  N     -927.043     580.216    -659.278
  C     -926.253     579.902    -660.256
  N     -926.809     579.341    -661.368
  C     -924.792     580.120    -660.211
  C     -924.314     580.667    -659.081
  O     -918.870     582.848    -658.439
  O     -920.254     580.697    -658.453
  H     -925.454     581.030    -653.723
  H     -919.345     580.345    -658.502
  H     -924.165     579.845    -661.049
  H     -923.257     580.852    -658.974
  H     -925.206     582.619    -656.739
  H     -925.620     579.984    -655.707
  H     -923.291     579.412    -655.972
  H     -922.678     582.227    -654.954
  H     -927.812     579.195    -661.356
  H     -920.724     580.722    -655.046
  H     -926.282     579.106    -662.193
  H     -921.097     580.258    -656.700
  P     -922.073     578.841    -653.686
  C     -921.251     579.892    -651.459
  O     -920.948     579.561    -652.813
  O     -921.382     578.683    -655.125
  O     -922.547     577.523    -653.173
  H     -921.069     577.769    -655.234
  H     -920.313     580.075    -650.929
  H     -921.797     579.082    -650.959
  H     -921.854     580.805    -651.435
  H     -922.309     584.403    -659.831
  H     -920.633     584.066    -660.194
  H     -921.058     584.881    -658.709

 3  4  5  6  7  8  9  10  11  12  13  23  27  28  29  30  32 0
 6-311+G(2d,p)
 ****
 34  35 0
 6-311+G(2d,p)
 ****
 1  2  14  15  16  17  18  19  20  21  22  24  25  26 0
 3-21G
 ****
 31  33  36  37  38  39  40  41  42  43  44  45  46 0
 3-21G
 ****


