%nproc=1
%NoSave
%Mem=1900MB
#P OB98/GEN NMR

erre ene a

0 1
  C     -330.161     -56.749     305.242
  O     -330.628     -57.483     306.365
  P     -330.038     -57.209     307.830
  C     -331.943     -55.538     308.277
  O     -330.535     -55.739     308.258
  C     -332.476     -55.649     309.704
  O     -331.978     -54.531     310.479
  C     -334.005     -55.612     309.784
  O     -334.431     -56.481     310.839
  C     -334.330     -54.177     310.187
  O     -335.592     -54.103     310.870
  C     -333.103     -53.823     311.042
  N     -332.395     -49.629     313.924
  C     -332.639     -50.915     314.258
  N     -332.840     -51.969     313.439
  C     -332.718     -51.608     312.152
  C     -332.468     -50.336     311.662
  C     -332.309     -49.310     312.607
  N     -332.045     -48.001     312.270
  N     -332.444     -50.339     310.280
  C     -332.655     -51.596     309.941
  N     -332.815     -52.402     311.040
  O     -328.571     -57.434     307.970
  O     -330.881     -58.169     308.789
  H     -336.229     -54.638     310.350
  H     -330.309     -58.540     309.482
  H     -332.680     -51.127     315.320
  H     -332.704     -51.972     308.928
  H     -333.227     -54.155     312.079
  H     -334.387     -53.550     309.291
  H     -334.490     -55.895     308.842
  H     -332.092     -56.570     310.158
  H     -332.411     -56.308     307.654
  H     -331.823     -47.356     313.017
  H     -331.805     -47.795     311.301
  H     -332.178     -54.555     307.851
  P     -335.895     -57.147     310.651
  C     -334.536     -59.115     309.612
  O     -335.680     -58.292     309.548
  O     -336.948     -56.117     310.374
  O     -336.060     -57.927     312.042
  H     -335.185     -58.142     312.435
  H     -334.553     -59.804     308.755
  H     -334.548     -59.708     310.528
  H     -333.626     -58.510     309.562
  H     -330.675     -57.077     304.363
  H     -329.110     -56.910     305.122
  H     -330.347     -55.706     305.395

 3  4  5  6  7  8  9  10  11  12  22  25  29  30  31  32 0
 6-311+G(2d,p)
 ****
 33  36  37 0
 6-311+G(2d,p)
 ****
 1  2  13  14  15  16  17  18  19  20  21  23  24  26 0
 3-21G
 ****
 27  28  34  35  38  39  40  41  42  43  44  45  46  47  48 0
 3-21G
 ****


