%nproc=1
%NoSave
%Mem=1900MB
#P OB98/GEN NMR

erre ene a

0 1
  C     -816.965    -675.669    -899.260
  O     -817.543    -676.501    -898.260
  H     -817.749    -675.117    -899.760
  H     -816.427    -676.287    -900.000
  H     -816.271    -674.959    -898.810
  P     -816.545    -677.423    -897.420
  C     -818.322    -677.265    -895.560
  O     -817.491    -678.133    -896.330
  C     -818.210    -677.602    -894.070
  O     -818.774    -678.902    -893.810
  C     -816.744    -677.628    -893.570
  O     -816.675    -677.065    -892.260
  C     -816.417    -679.106    -893.520
  O     -815.376    -679.396    -892.580
  C     -817.787    -679.709    -893.170
  N     -816.477    -684.516    -892.030
  C     -816.354    -683.365    -891.340
  N     -816.758    -682.126    -891.720
  C     -817.354    -682.153    -892.910
  C     -817.560    -683.265    -893.730
  C     -817.092    -684.474    -893.230
  N     -817.177    -685.675    -893.920
  N     -818.196    -682.887    -894.900
  C     -818.384    -681.583    -894.780
  N     -817.886    -681.091    -893.610
  O     -815.331    -676.749    -896.880
  O     -816.275    -678.616    -898.450
  H     -815.294    -680.376    -892.520
  H     -817.084    -678.911    -898.890
  H     -815.859    -683.420    -890.360
  H     -818.882    -680.935    -895.520
  H     -817.991    -679.700    -892.100
  H     -816.088    -679.453    -894.500
  H     -816.055    -677.089    -894.250
  H     -818.799    -676.867    -893.490
  H     -819.371    -677.389    -895.870
  H     -816.817    -686.512    -893.510
  H     -817.650    -685.673    -894.830
  H     -818.018    -676.237    -895.750
  P     -815.579    -675.947    -891.960
  C     -817.164    -674.514    -890.490
  O     -815.938    -675.224    -890.570
  O     -815.251    -675.014    -893.100
  O     -814.292    -676.840    -891.570
  H     -813.490    -676.390    -891.930
  H     -817.267    -674.089    -889.513
  H     -817.977    -675.185    -890.675
  H     -817.172    -673.733    -891.222

 6  7  8  9  10  11  12  13  14  15  25  28  32  33  34  35 0
 6-311+G(2d,p)
 ****
 36  39  40 0
 6-311+G(2d,p)
 ****
 1  2  3  4  5  16  17  18  19  20  21  22  23  24 0
 3-21G
 ****
 26  27  29  30  31  37  38  41  42  43  44  45  46  47 0
 3-21G
 ****
 48 0
 3-21G
 ****


