%nproc=1
%NoSave
%Mem=1900MB
#P OB98/GEN NMR

erre ene a

0 1
  C     -236.539     150.897    -217.261
  O     -237.824     150.336    -217.428
  H     -236.030     150.904    -218.228
  H     -235.955     150.290    -216.564
  H     -236.611     151.923    -216.893
  P     -238.814     150.369    -216.166
  C     -239.543     147.884    -216.346
  O     -239.933     149.247    -216.431
  C     -240.662     146.978    -216.863
  O     -241.747     146.981    -215.899
  C     -241.231     147.414    -218.215
  O     -241.521     146.245    -218.987
  C     -242.528     148.115    -217.851
  O     -243.479     148.100    -218.915
  C     -242.956     147.340    -216.596
  N     -243.850     148.133    -215.759
  C     -244.938     147.462    -215.192
  O     -245.112     146.263    -215.415
  N     -245.833     148.173    -214.435
  C     -245.704     149.458    -214.325
  N     -246.641     150.112    -213.586
  C     -244.610     150.218    -214.961
  C     -243.724     149.499    -215.649
  O     -239.617     151.738    -216.360
  O     -238.152     150.281    -214.832
  H     -243.040     148.437    -219.726
  H     -239.862     152.130    -215.500
  H     -244.559     151.293    -214.862
  H     -242.892     149.970    -216.157
  H     -243.468     146.409    -216.875
  H     -242.320     149.161    -217.598
  H     -240.555     148.063    -218.777
  H     -240.282     145.951    -216.912
  H     -247.386     149.558    -213.179
  H     -239.340     147.636    -215.300
  H     -246.665     151.114    -213.470
  H     -238.628     147.730    -216.929
  P     -240.560     145.950    -220.235
  C     -242.433     144.309    -220.979
  O     -241.037     144.580    -220.921
  O     -239.168     145.564    -219.546
  O     -240.413     147.108    -221.167
  H     -238.520     146.281    -219.676
  H     -242.594     143.367    -221.461
  H     -242.924     145.081    -221.534
  H     -242.831     144.275    -219.986

 6  7  8  9  10  11  12  13  14  15  16  26  30  31  32  33  35 0
 6-311+G(2d,p)
 ****
 37  38 0
 6-311+G(2d,p)
 ****
 1  2  3  4  5  17  18  19  20  21  22  23  24  25 0
 3-21G
 ****
 27  28  29  34  36  39  40  41  42  43  44  45  46 0
 3-21G
 ****


