%nproc=1
%NoSave
%Mem=1900MB
#P OB98/GEN NMR

erre ene a

0 1
  C      -36.769    -154.724     194.537
  O      -35.818    -154.524     193.497
  P      -35.816    -153.094     192.764
  C      -36.047    -154.328     190.492
  O      -36.566    -153.327     191.365
  C      -37.181    -155.127     189.863
  O      -38.043    -155.644     190.895
  C      -38.085    -154.328     188.942
  O      -37.522    -154.171     187.649
  C      -39.320    -155.214     188.897
  O      -39.124    -156.272     187.942
  C      -39.370    -155.778     190.327
  N      -44.207    -155.493     191.801
  C      -43.606    -156.342     190.892
  N      -44.407    -157.264     190.313
  N      -42.340    -156.291     190.577
  C      -41.655    -155.347     191.262
  C      -42.137    -154.447     192.186
  C      -43.553    -154.478     192.488
  O      -44.153    -153.710     193.236
  N      -41.136    -153.651     192.680
  C      -40.043    -154.094     192.087
  N      -40.314    -155.102     191.193
  O      -34.284    -152.913     192.337
  O      -36.303    -151.955     193.594
  H      -38.840    -155.856     187.109
  H      -34.076    -151.960     192.250
  H      -45.182    -155.586     192.019
  H      -39.049    -153.717     192.270
  H      -39.609    -156.850     190.320
  H      -40.223    -154.673     188.592
  H      -45.355    -157.439     190.612
  H      -38.343    -153.358     189.385
  H      -43.980    -157.920     189.673
  H      -36.743    -155.980     189.330
  H      -35.404    -155.008     191.064
  H      -35.442    -153.843     189.720
  P      -37.258    -152.663     187.155
  C      -39.068    -152.924     185.308
  O      -38.619    -152.210     186.445
  O      -36.231    -152.852     185.939
  O      -36.728    -151.756     188.213
  H      -35.693    -152.043     185.828
  H      -38.851    -153.994     185.397
  H      -38.584    -152.527     184.415
  H      -40.150    -152.799     185.215
  H      -36.660    -155.711     194.935
  H      -37.757    -154.604     194.145
  H      -36.604    -154.007     195.314

 3  4  5  6  7  8  9  10  11  12  23  26  30  31  33  0
 6-311+G(2d,p)
 ****
 35  36  37  38 0
 6-311+G(2d,p)
 ****
 1  2  13  14  15  16  17  18  19  20  21  22  24  25  27  28  29 0
 3-21G
 ****
 32  34  39  40  41  42  43  44  45  46  47  48  49 0
 3-21G
 ****


