%nproc=1
%NoSave
%Mem=1900MB
#P OB98/GEN NMR

erre ene a

0 1
  C     -180.435    -162.665     -84.761
  O     -181.081    -163.546     -83.864
  H     -180.269    -163.185     -85.707
  H     -179.468    -162.359     -84.354
  H     -181.057    -161.784     -84.945
  P     -181.523    -162.946     -82.445
  C     -184.012    -163.676     -82.202
  O     -182.655    -163.932     -81.872
  C     -184.256    -163.992     -83.678
  O     -183.945    -165.394     -83.909
  C     -185.708    -163.766     -84.115
  O     -185.718    -163.262     -85.454
  C     -186.303    -165.164     -84.090
  O     -187.437    -165.320     -84.927
  C     -185.098    -166.000     -84.531
  N     -185.214    -167.404     -84.147
  C     -185.322    -168.343     -85.169
  O     -185.249    -168.080     -86.371
  N     -185.524    -169.636     -84.765
  C     -185.651    -170.070     -83.476
  O     -185.856    -171.241     -83.178
  C     -185.536    -169.031     -82.441
  C     -185.330    -167.768     -82.817
  O     -182.352    -161.633     -82.840
  O     -180.414    -162.659     -81.491
  H     -181.759    -160.858     -82.886
  H     -187.692    -166.266     -84.918
  H     -185.606    -170.330     -85.494
  H     -185.640    -169.336     -81.409
  H     -185.254    -166.975     -82.081
  H     -184.958    -165.926     -85.620
  H     -186.598    -165.423     -83.065
  H     -186.248    -163.083     -83.459
  H     -183.560    -163.402     -84.289
  H     -184.233    -162.618     -82.018
  H     -184.660    -164.290     -81.570
  P     -185.956    -161.683     -85.645
  C     -185.047    -161.655     -88.100
  O     -186.147    -161.457     -87.226
  O     -184.500    -161.105     -85.336
  O     -187.051    -161.150     -84.784
  H     -183.778    -161.672     -85.658
  H     -185.352    -161.462     -89.107
  H     -184.704    -162.665     -88.019
  H     -184.255    -160.987     -87.833

 6  7  8  9  10  11  12  13  14  15  16  27  31  32  33  34  35 0
 6-311+G(2d,p)
 ****
 36  37 0
 6-311+G(2d,p)
 ****
 1  2  3  4  5  17  18  19  20  21  22  23  24  25 0
 3-21G
 ****
 26  28  29  30  38  39  40  41  42  43  44  45 0
 3-21G
 ****


