%nproc=1
%NoSave
%Mem=1900MB
#P OB98/GEN NMR

erre ene a

0 1
  C      -27.480       0.025    -165.112
  O      -26.227      -0.629    -165.156
  H      -28.177      -0.592    -164.540
  H      -27.872       0.157    -166.124
  H      -27.383       0.997    -164.621
  P      -25.048       0.128    -165.938
  C      -24.131      -2.205    -166.627
  O      -24.506      -0.899    -167.043
  C      -24.093      -3.138    -167.833
  O      -25.442      -3.444    -168.257
  C      -23.410      -2.539    -169.054
  O      -21.999      -2.580    -168.959
  C      -23.970      -3.415    -170.163
  O      -23.237      -4.641    -170.283
  C      -25.398      -3.694    -169.681
  N      -28.918      -3.624    -173.376
  C      -28.164      -4.622    -172.868
  N      -27.255      -4.562    -171.872
  C      -27.184      -3.316    -171.372
  C      -27.893      -2.201    -171.785
  C      -28.801      -2.388    -172.840
  N      -29.552      -1.368    -173.374
  N      -27.517      -1.090    -171.056
  C      -26.605      -1.527    -170.212
  N      -26.374      -2.866    -170.364
  O      -23.871       0.178    -164.854
  O      -25.396       1.486    -166.445
  H      -22.307      -4.388    -170.445
  H      -23.849       1.060    -164.439
  H      -28.300      -5.597    -173.329
  H      -26.082      -0.919    -169.485
  H      -25.692      -4.739    -169.837
  H      -23.922      -2.904    -171.125
  H      -23.756      -1.509    -169.212
  H      -23.607      -4.076    -167.536
  H      -24.864      -2.580    -165.904
  H      -23.149      -2.156    -166.145
  H      -30.131      -1.560    -174.174
  H      -29.387      -0.420    -173.058
  P      -21.226      -1.194    -168.728
  C      -18.940      -2.211    -169.463
  O      -19.929      -1.211    -169.669
  O      -20.628      -1.331    -167.250
  O      -22.077       0.022    -168.873
  H      -20.643      -0.462    -166.805
  H      -18.148      -2.080    -170.170
  H      -19.378      -3.178    -169.594
  H      -18.550      -2.127    -168.470

 6  7  8  9  10  11  12  13  14  15  25  28  32  33  34  35 0
 6-311+G(2d,p)
 ****
 36  37  40 0
 6-311+G(2d,p)
 ****
 1  2  3  4  5  16  17  18  19  20  21  22  23  24 0
 3-21G
 ****
 26  27  29  30  31  38  39 41  42  43  44  45  46  47  48 0
 3-21G
 ****


