%nproc=1
%NoSave
%Mem=1900MB
#P OB98/GEN NMR

erre ene a

0 1
  C     -444.829     322.473    -235.510
  O     -445.659     323.103    -236.463
  H     -445.439     321.798    -234.897
  H     -444.361     323.217    -234.854
  H     -444.052     321.886    -236.010
  P     -444.959     324.214    -237.391
  C     -445.288     326.796    -237.231
  O     -445.123     325.569    -236.543
  C     -446.037     327.792    -236.345
  O     -447.465     327.568    -236.426
  C     -445.693     327.689    -234.863
  O     -444.467     328.318    -234.532
  C     -446.878     328.420    -234.258
  O     -446.715     329.839    -234.434
  C     -448.036     327.881    -235.132
  N     -448.691     326.701    -234.553
  C     -449.967     326.878    -234.020
  O     -450.502     327.988    -234.032
  N     -450.609     325.797    -233.446
  C     -450.025     324.639    -233.418
  N     -450.695     323.616    -232.830
  C     -448.685     324.399    -233.987
  C     -448.088     325.453    -234.531
  O     -446.012     324.425    -238.582
  O     -443.575     323.900    -237.843
  H     -447.574     330.251    -234.204
  H     -445.731     325.184    -239.150
  H     -448.232     323.416    -233.939
  H     -447.087     325.360    -234.966
  H     -448.802     328.651    -235.281
  H     -446.994     328.240    -233.186
  H     -445.709     326.650    -234.518
  H     -445.847     328.804    -236.734
  H     -451.587     323.813    -232.396
  H     -445.860     326.611    -238.145
  H     -450.253     322.733    -232.603
  H     -444.314     327.215    -237.498
  P     -443.541     327.612    -233.428
  C     -443.349     327.803    -230.838
  O     -444.164     327.978    -231.995
  O     -442.199     328.495    -233.460
  O     -443.262     326.161    -233.666
  H     -441.411     327.928    -233.364
  H     -443.901     328.087    -229.967
  H     -442.475     328.414    -230.922
  H     -443.060     326.776    -230.758

 6  7  8  9  10  11  12  13  14  15  16  26  30  31  32  33  35 0
 6-311+G(2d,p)
 ****
 37  38 0
 6-311+G(2d,p)
 ****
 1  2  3  4  5  17  18  19  20  21  22  23  24  25 0
 3-21G
 ****
 27  28  29  34  36  39  40  41  42  43  44  45  46 0
 3-21G
 ****


