%nproc=1
%NoSave
%Mem=1900MB
#P OB98/GEN NMR

erre ene a

0 1
  C     -149.186    -149.515     -68.874
  O     -148.116    -150.435     -68.755
  P     -146.661    -149.872     -68.397
  C     -147.141    -150.003     -65.844
  O     -146.743    -149.198     -66.944
  C     -146.022    -150.073     -64.802
  O     -145.551    -148.723     -64.508
  C     -146.448    -150.709     -63.470
  O     -145.313    -151.414     -62.945
  C     -146.738    -149.496     -62.606
  O     -146.721    -149.782     -61.216
  C     -145.622    -148.557     -63.077
  N     -145.859    -147.163     -62.707
  C     -146.220    -146.903     -61.388
  O     -146.351    -147.773     -60.527
  N     -146.492    -145.595     -61.091
  C     -146.528    -144.559     -61.978
  O     -146.896    -143.431     -61.672
  C     -146.139    -144.892     -63.357
  C     -145.826    -146.156     -63.654
  O     -146.496    -148.625     -69.387
  O     -145.553    -150.862     -68.557
  H     -145.861    -150.193     -61.011
  H     -145.951    -148.871     -70.156
  H     -146.746    -145.387     -60.136
  H     -146.136    -144.089     -64.084
  H     -145.554    -146.432     -64.668
  H     -144.657    -148.882     -62.669
  H     -147.727    -149.098     -62.857
  H     -147.307    -151.382     -63.559
  H     -145.177    -150.625     -65.234
  H     -147.364    -151.010     -66.200
  H     -148.056    -149.593     -65.401
  P     -145.583    -152.572     -61.865
  C     -145.471    -154.536     -63.588
  O     -146.237    -153.799     -62.660
  O     -146.810    -151.941     -61.048
  O     -144.397    -152.887     -61.011
  H     -147.472    -151.531     -61.629
  H     -144.424    -154.612     -63.276
  H     -145.522    -154.052     -64.565
  H     -145.888    -155.544     -63.670
  H     -150.085    -150.043     -69.115
  H     -148.967    -148.811     -69.650
  H     -149.315    -148.996     -67.947

 3  4  5  6  7  8  9  10  11  12  13  23  28  29  30  31  32 0
 6-311+G(2d,p)
 ****
 33  34 0
 6-311+G(2d,p)
 ****
 1  2  14  15  16  17  18  19  20  21  22  24  25  26 0
 3-21G
 ****
 27  35  36  37  38  39  40  41  42  43  44  45 0
 3-21G
 ****


