%nproc=1
%NoSave
%Mem=1900MB
#P OB98/GEN NMR

erre ene a

0 1
  C      328.981    -892.210     572.597
  O      329.375    -892.490     571.272
  P      328.282    -892.460     570.082
  C      328.422    -894.870     569.192
  O      327.676    -893.950     569.985
  C      327.933    -896.310     569.471
  O      327.853    -896.560     570.902
  C      326.528    -896.580     568.950
  O      326.346    -896.590     567.548
  C      326.194    -897.870     569.698
  O      326.783    -899.020     569.065
  C      326.879    -897.630     571.067
  N      325.907    -897.310     572.113
  C      325.481    -898.370     572.891
  O      325.869    -899.520     572.736
  N      324.538    -898.090     573.841
  C      323.965    -896.850     574.052
  O      323.093    -896.670     574.909
  C      324.456    -895.750     573.191
  C      325.386    -896.030     572.261
  O      328.770    -891.890     568.781
  O      327.063    -891.630     570.739
  H      326.511    -899.800     569.564
  H      326.691    -892.030     571.533
  H      324.200    -898.850     574.415
  H      324.041    -894.790     573.353
  H      325.753    -895.240     571.622
  H      327.445    -898.510     571.377
  H      325.116    -898.050     569.750
  H      325.857    -895.800     569.344
  H      328.669    -897.010     569.050
  H      329.483    -894.800     569.466
  H      328.309    -894.630     568.125
  P      324.895    -896.680     566.869
  C      325.516    -899.000     565.848
  O      324.557    -898.240     566.591
  O      324.591    -895.720     565.779
  O      323.915    -896.360     568.117
  H      323.106    -895.910     567.776
  H      325.106    -900.000     565.737
  H      326.479    -899.060     566.412
  H      325.666    -898.560     564.876
  H      329.831    -892.276     573.243
  H      328.242    -892.919     572.907
  H      328.571    -891.223     572.646

 3  4  5  6  7  8  9  10  11  12  13  23  28  29  30  31  32 0
 6-311+G(2d,p)
 ****
 33  34 0
 6-311+G(2d,p)
 ****
 1  2  14  15  16  17  18  19  20  21  22  24  25  26  27 0
 3-21G
 ****
 35  36  37  38  39  40  41  42  43  44  45 0
 3-21G
 ****


