%nproc=1
%NoSave
%Mem=1900MB
#P OB98/GEN NMR

erre ene a

0 1
  C      114.675     143.919     251.820
  O      114.467     142.640     252.387
  H      115.468     143.846     251.072
  H      114.982     144.625     252.595
  H      113.761     144.272     251.335
  P      113.305     142.527     253.486
  C      114.233     144.242     255.218
  O      113.261     143.953     254.224
  C      113.765     145.411     256.093
  O      112.539     145.016     256.777
  C      114.776     145.811     257.179
  O      114.630     147.219     257.441
  C      114.273     145.025     258.376
  O      114.824     145.533     259.568
  C      112.771     145.204     258.188
  N      108.036     143.863     259.529
  C      108.501     144.795     258.670
  N      109.782     145.085     258.358
  C      110.624     144.274     259.023
  C      110.301     143.283     259.934
  C      108.932     143.090     260.188
  N      108.453     142.158     261.079
  N      111.446     142.685     260.426
  C      112.439     143.303     259.819
  N      111.990     144.267     258.962
  O      113.934     141.549     254.585
  O      111.988     142.038     252.987
  H      114.604     144.960     260.331
  H      113.677     140.627     254.397
  H      107.745     145.387     258.161
  H      113.493     143.101     259.967
  H      112.434     146.214     258.454
  H      114.559     143.972     258.304
  H      115.813     145.595     256.910
  H      113.510     146.262     255.450
  H      115.173     144.502     254.722
  H      114.387     143.359     255.844
  H      107.459     142.102     261.225
  H      109.109     141.598     261.606
  P      115.734     148.237     256.874
  C      118.057     147.926     258.021
  O      117.196     147.580     256.947
  O      115.799     149.339     258.038
  O      115.396     148.887     255.570
  H      115.786     150.232     257.646
  H      118.984     147.403     257.917
  H      117.597     147.656     258.948
  H      118.239     148.980     258.007

 6  7  8  9  10  11  12  13  14  15  25  28  32  33  34  35 0
 6-311+G(2d,p)
 ****
 36  37  40 0
 6-311+G(2d,p)
 ****
 1  2  3  4  5  16  17  18  19  20  21  22  23  24 0
 3-21G
 ****
 26  27  29  30  31  38  39 41  42  43  44  45  46  47  48 0
 3-21G
 ****


