%nproc=1
%NoSave
%Mem=1900MB
#P OB98/GEN NMR

erre ene a

0 1
  C      776.376    -682.750    -893.370
  O      776.475    -682.314    -894.720
  P      776.525    -680.728    -894.980
  C      773.891    -680.638    -895.160
  O      775.085    -680.133    -894.570
  C      772.658    -679.926    -894.600
  O      772.770    -678.502    -894.860
  C      771.333    -680.347    -895.210
  O      770.259    -679.958    -894.320
  C      771.270    -679.506    -896.460
  O      769.948    -679.412    -896.990
  C      771.876    -678.172    -895.980
  N      772.655    -677.454    -897.020
  C      772.106    -676.325    -897.620
  O      771.019    -675.869    -897.300
  N      772.848    -675.720    -898.610
  C      774.067    -676.129    -899.030
  O      774.641    -675.622    -900.000
  C      774.683    -677.266    -898.300
  C      773.954    -677.854    -897.360
  O      776.554    -680.614    -896.570
  O      777.685    -680.043    -894.330
  H      770.032    -678.878    -897.820
  H      777.443    -680.365    -896.880
  H      772.435    -674.941    -899.080
  H      775.689    -677.561    -898.580
  H      774.390    -678.701    -896.820
  H      771.111    -677.472    -895.620
  H      771.907    -679.948    -897.250
  H      771.246    -681.417    -895.440
  H      772.627    -680.062    -893.490
  H      773.840    -681.708    -895.000
  H      773.937    -680.476    -896.250
  P      769.380    -681.123    -893.620
  C      767.870    -681.729    -895.610
  O      768.952    -682.136    -894.810
  O      768.288    -680.671    -892.740
  O      770.496    -681.973    -892.830
  H      770.084    -682.506    -892.120
  H      767.981    -682.168    -896.600
  H      767.795    -680.646    -895.700
  H      766.932    -682.129    -895.160
  H      776.352    -683.819    -893.341
  H      775.479    -682.361    -892.935
  H      777.222    -682.397    -892.818

 3  4  5  6  7  8  9  10  11  12  13  23  28  29  30  31  32 0
 6-311+G(2d,p)
 ****
 33  34 0
 6-311+G(2d,p)
 ****
 1  2  14  15  16  17  18  19  20  21  22  24  25  26  27 0
 3-21G
 ****
 35  36  37  38  39  40  41  42  43  44  45 0
 3-21G
 ****


