%nproc=1
%NoSave
%Mem=1900MB
#P OB98/GEN NMR

erre ene a

0 1
  C      277.235       7.937     -86.142
  O      278.375       7.578     -86.903
  P      278.581       8.190     -88.367
  C      281.101       8.597     -88.049
  O      280.098       7.916     -88.802
  C      282.483       8.040     -88.381
  O      282.718       6.814     -87.657
  C      282.674       7.690     -89.851
  O      282.879       8.856     -90.625
  C      283.874       6.754     -89.778
  O      285.097       7.504     -89.699
  C      283.616       6.010     -88.457
  N      284.221       1.043     -87.467
  C      285.032       2.104     -87.274
  N      284.813       3.397     -87.602
  C      283.624       3.531     -88.210
  C      282.705       2.537     -88.509
  C      283.034       1.237     -88.087
  N      282.187       0.156     -88.222
  N      281.614       3.069     -89.169
  C      281.876       4.357     -89.276
  N      283.046       4.692     -88.654
  O      278.115       9.599     -88.544
  O      277.751       7.200     -89.313
  H      285.349       7.745     -90.610
  H      277.046       7.700     -89.768
  H      285.977       1.892     -86.782
  H      281.246       5.083     -89.773
  H      284.534       5.886     -87.873
  H      283.950       6.097     -90.650
  H      281.805       7.130     -90.219
  H      283.233       8.773     -88.056
  H      280.886       8.452     -86.986
  H      282.459      -0.693     -87.756
  H      281.201       0.335     -88.397
  H      281.058       9.668     -88.275
  P      283.195       8.731     -92.187
  C      282.467      10.987     -93.169
  O      283.554      10.201     -92.714
  O      282.176       7.997     -92.998
  O      284.611       7.986     -92.229
  H      284.663       7.429     -93.029
  H      282.179      10.668     -94.175
  H      282.780      12.033     -93.207
  H      281.610      10.897     -92.497
  H      277.264       7.436     -85.197
  H      276.349       7.651     -86.670
  H      277.230       8.995     -85.984

 3  4  5  6  7  8  9  10  11  12  22  25  29  30  31  32 0
 6-311+G(2d,p)
 ****
 33  36  37 0
 6-311+G(2d,p)
 ****
 1  2  13  14  15  16  17  18  19  20  21  23  24  26 0
 3-21G
 ****
 27  28  34  35  38  39  40  41  42  43  44  45  46  47  48 0
 3-21G
 ****


