%nproc=1
%NoSave
%Mem=1900MB
#P OB98/GEN NMR

erre ene a

0 1
  C     -169.934      42.006     252.726
  O     -169.070      42.976     253.284
  H     -169.834      42.035     251.638
  H     -170.971      42.231     252.986
  H     -169.671      41.005     253.075
  P     -168.908      43.040     254.877
  C     -169.239      45.458     255.714
  O     -169.860      44.219     255.396
  C     -169.664      45.908     257.110
  O     -171.064      46.264     257.114
  C     -169.509      44.831     258.177
  O     -168.156      44.681     258.561
  C     -170.423      45.372     259.264
  O     -169.762      46.390     260.032
  C     -171.579      45.971     258.433
  N     -172.743      45.089     258.362
  C     -173.826      45.425     259.167
  O     -173.823      46.386     259.936
  N     -174.912      44.595     259.085
  C     -174.976      43.430     258.378
  O     -175.942      42.674     258.408
  C     -173.795      43.111     257.564
  C     -172.750      43.943     257.591
  O     -167.505      43.091     255.382
  O     -169.663      41.721     255.385
  H     -169.550      47.112     259.408
  H     -169.005      41.053     255.652
  H     -175.701      44.815     259.670
  H     -173.812      42.203     256.979
  H     -171.868      43.723     257.003
  H     -171.900      46.928     258.863
  H     -170.738      44.599     259.963
  H     -169.917      43.881     257.815
  H     -169.086      46.804     257.374
  H     -169.550      46.206     254.979
  H     -168.152      45.335     255.659
  P     -167.501      43.223     258.617
  C     -167.877      43.366     261.156
  O     -167.945      42.540     259.998
  O     -166.037      43.167     258.328
  O     -168.324      42.391     257.525
  H     -167.713      42.073     256.833
  H     -168.195      42.808     262.012
  H     -168.516      44.215     261.027
  H     -166.870      43.696     261.300

 6  7  8  9  10  11  12  13  14  15  16  26  31  32  33  34  35 0
 6-311+G(2d,p)
 ****
 36  37 0
 6-311+G(2d,p)
 ****
 1  2  3  4  5  17  18  19  20  21  22  23  24  25 0
 3-21G
 ****
 27  28  29  30  38  39  40  41  42  43  44  45 0
 3-21G
 ****


