%nproc=1
%NoSave
%Mem=1900MB
#P OB98/GEN NMR

erre ene a

0 1
  C     -406.452     261.776    -276.919
  O     -406.339     262.298    -278.247
  P     -406.933     261.370    -279.421
  C     -404.847     259.850    -279.812
  O     -406.205     259.934    -279.348
  C     -404.067     258.766    -279.057
  O     -404.761     257.510    -279.148
  C     -402.634     258.540    -279.586
  O     -401.769     258.259    -278.471
  C     -402.770     257.251    -280.390
  O     -401.511     256.583    -280.531
  C     -403.802     256.518    -279.542
  N     -403.241     251.873    -281.513
  C     -402.370     252.623    -280.732
  N     -401.179     252.046    -280.460
  N     -402.656     253.809    -280.270
  C     -403.899     254.235    -280.597
  C     -404.849     253.599    -281.360
  C     -404.503     252.300    -281.914
  O     -405.219     251.621    -282.667
  N     -405.994     254.366    -281.481
  C     -405.732     255.462    -280.809
  N     -404.473     255.436    -280.262
  O     -406.336     262.038    -280.751
  O     -408.425     261.326    -279.464
  H     -400.886     257.222    -280.911
  H     -407.060     262.282    -281.362
  H     -402.963     250.972    -281.863
  H     -406.390     256.306    -280.699
  H     -403.354     256.099    -278.640
  H     -403.144     257.484    -281.388
  H     -400.918     251.114    -280.732
  H     -402.222     259.359    -280.183
  H     -400.552     252.549    -279.838
  H     -404.038     259.045    -277.992
  H     -404.349     260.827    -279.678
  H     -404.860     259.630    -280.880
  P     -400.837     259.474    -277.973
  C     -399.519     259.538    -280.221
  O     -400.342     260.221    -279.295
  O     -399.513     258.736    -277.432
  O     -401.469     260.327    -276.914
  H     -399.085     259.268    -276.750
  H     -399.460     258.461    -279.986
  H     -398.514     259.945    -280.165
  H     -399.917     259.651    -281.216
  H     -406.028     262.471    -276.225
  H     -405.929     260.845    -276.856
  H     -407.484     261.622    -276.683

 3  4  5  6  7  8  9  10  11  12  23  26  30  31  33  0
 6-311+G(2d,p)
 ****
 35  36  37  38 0
 6-311+G(2d,p)
 ****
 1  2  13  14  15  16  17  18  19  20  21  22  24  25  27  28  29 0
 3-21G
 ****
 32  34  39  40  41  42  43  44  45  46  47  48  49 0
 3-21G
 ****


