%nproc=1
%NoSave
%Mem=1900MB
#P OB98/GEN NMR

erre ene a

0 1
  C     -187.464     427.214    -496.219
  O     -186.993     426.635    -497.425
  H     -188.505     426.914    -496.066
  H     -187.417     428.303    -496.286
  H     -186.868     426.867    -495.369
  P     -185.421     426.764    -497.708
  C     -184.888     424.204    -497.479
  O     -184.698     425.522    -496.979
  C     -183.537     423.580    -497.835
  O     -182.668     423.536    -496.688
  C     -183.615     422.129    -498.282
  O     -184.163     421.985    -499.576
  C     -182.150     421.731    -498.193
  O     -181.433     422.085    -499.380
  C     -181.653     422.550    -496.981
  N     -181.359     421.700    -495.840
  C     -180.203     422.048    -495.119
  O     -179.529     423.019    -495.462
  N     -179.830     421.259    -494.061
  C     -180.520     420.202    -493.765
  N     -180.080     419.442    -492.725
  C     -181.750     419.801    -494.495
  C     -182.100     420.592    -495.513
  O     -185.005     428.013    -496.800
  O     -185.055     426.908    -499.150
  H     -181.879     421.633    -500.125
  H     -185.333     427.956    -495.885
  H     -182.297     418.924    -494.199
  H     -182.988     420.376    -496.110
  H     -180.740     423.110    -497.237
  H     -182.035     420.644    -498.069
  H     -184.173     421.537    -497.541
  H     -183.062     424.206    -498.607
  H     -179.204     419.714    -492.284
  H     -185.544     424.212    -498.355
  H     -180.493     418.560    -492.458
  H     -185.381     423.617    -496.698
  P     -184.991     420.680    -499.986
  C     -187.206     421.686    -499.121
  O     -186.274     420.617    -499.010
  O     -184.196     419.413    -500.052
  O     -185.665     421.099    -501.385
  H     -186.249     421.880    -501.339
  H     -188.007     421.534    -498.428
  H     -187.596     421.717    -500.117
  H     -186.715     422.611    -498.901

 6  7  8  9  10  11  12  13  14  15  16  26  30  31  32  33  35 0
 6-311+G(2d,p)
 ****
 37  38 0
 6-311+G(2d,p)
 ****
 1  2  3  4  5  17  18  19  20  21  22  23  24  25 0
 3-21G
 ****
 27  28  29  34  36  39  40  41  42  43  44  45  46 0
 3-21G
 ****


