%nproc=1
%NoSave
%Mem=1900MB
#P OB98/GEN NMR

erre ene a

0 1
  C      -58.734     100.678     -59.921
  O      -58.237     100.857     -61.248
  P      -56.912     100.075     -61.695
  C      -55.535     102.230     -61.380
  O      -55.634     100.843     -61.095
  C      -54.093     102.723     -61.197
  O      -53.773     102.858     -59.781
  C      -53.061     101.760     -61.800
  O      -51.929     102.486     -62.304
  C      -52.601     100.960     -60.597
  O      -51.333     100.350     -60.823
  C      -52.614     102.041     -59.518
  N      -50.268     101.847     -54.971
  C      -49.997     102.551     -56.092
  N      -50.679     102.570     -57.256
  C      -51.753     101.765     -57.190
  C      -52.160     100.993     -56.113
  C      -51.359     101.047     -54.960
  N      -51.618     100.307     -53.828
  N      -53.309     100.290     -56.418
  C      -53.561     100.597     -57.674
  N      -52.671     101.507     -58.173
  O      -56.818      99.736     -63.144
  O      -56.964      98.747     -60.798
  H      -50.715     101.054     -61.095
  H      -56.699      97.982     -61.344
  H      -49.112     103.179     -56.049
  H      -54.361     100.180     -58.268
  H      -51.732     102.689     -59.581
  H      -53.328     100.170     -60.376
  H      -53.450     101.119     -62.598
  H      -53.997     103.719     -61.642
  H      -56.206     102.790     -60.724
  H      -50.925     100.321     -53.095
  H      -52.339      99.599     -53.862
  H      -55.890     102.413     -62.401
  P      -51.760     102.508     -63.906
  C      -49.778     100.810     -64.046
  O      -51.137     101.086     -64.297
  O      -51.033     103.709     -64.412
  O      -53.281     102.424     -64.397
  H      -53.802     101.712     -63.989
  H      -49.587      99.757     -64.264
  H      -49.529     100.999     -62.999
  H      -49.144     101.422     -64.693
  H      -59.617     101.267     -59.789
  H      -57.990     100.987     -59.217
  H      -58.967      99.646     -59.764

 3  4  5  6  7  8  9  10  11  12  22  25  29  30  31  32 0
 6-311+G(2d,p)
 ****
 33  36  37 0
 6-311+G(2d,p)
 ****
 1  2  13  14  15  16  17  18  19  20  21  23  24  26 0
 3-21G
 ****
 27  28  34  35  38  39  40  41  42  43  44  45  46  47  48 0
 3-21G
 ****


