%nproc=1
%NoSave
%Mem=1900MB
#P OB98/GEN NMR

erre ene a

0 1
  C      468.414    -246.026    -186.289
  O      468.843    -246.825    -187.379
  P      469.595    -248.204    -187.050
  C      467.805    -250.037    -187.406
  O      468.479    -249.204    -186.474
  C      468.132    -251.501    -187.167
  O      469.568    -251.697    -187.311
  C      467.733    -252.021    -185.776
  O      467.136    -253.318    -185.903
  C      469.070    -252.201    -185.071
  O      469.001    -253.175    -184.033
  C      469.959    -252.590    -186.253
  N      473.824    -254.621    -183.710
  C      472.558    -255.121    -183.939
  N      472.267    -256.309    -183.360
  N      471.658    -254.516    -184.665
  C      472.094    -253.353    -185.214
  C      473.327    -252.763    -185.069
  C      474.296    -253.416    -184.212
  O      475.402    -252.973    -183.897
  N      473.405    -251.596    -185.790
  C      472.225    -251.480    -186.362
  N      471.379    -252.499    -186.006
  O      470.471    -247.826    -185.762
  O      470.449    -248.742    -188.145
  H      469.876    -253.199    -183.604
  H      471.413    -248.024    -185.938
  H      474.471    -255.119    -183.130
  H      471.932    -250.671    -187.015
  H      469.737    -253.620    -186.574
  H      469.378    -251.249    -184.629
  H      472.922    -256.845    -182.814
  H      467.066    -251.355    -185.224
  H      471.350    -256.703    -183.532
  H      467.652    -252.103    -187.951
  H      468.113    -249.759    -188.423
  H      466.725    -249.868    -187.315
  P      465.789    -253.558    -185.055
  C      464.147    -253.044    -187.014
  O      464.668    -252.658    -185.755
  O      466.083    -252.803    -183.679
  O      465.450    -254.998    -184.861
  H      465.540    -253.181    -182.960
  H      464.480    -254.047    -187.303
  H      464.478    -252.332    -187.772
  H      463.057    -253.033    -186.965
  H      467.933    -245.145    -186.660
  H      469.260    -245.747    -185.696
  H      467.725    -246.582    -185.688

 3  4  5  6  7  8  9  10  11  12  23  26  30  31  33  0
 6-311+G(2d,p)
 ****
 35  36  37  38 0
 6-311+G(2d,p)
 ****
 1  2  13  14  15  16  17  18  19  20  21  22  24  25  27  28  29 0
 3-21G
 ****
 32  34  39  40  41  42  43  44  45  46  47  48  49 0
 3-21G
 ****


