%nproc=1
%NoSave
%Mem=1900MB
#P OB98/GEN NMR

erre ene a

0 1
  C      145.812     119.748      79.685
  O      147.217     119.643      79.758
  H      145.449     120.260      80.580
  H      145.364     118.752      79.648
  H      145.513     120.323      78.803
  P      147.984     119.063      78.473
  C      150.210     120.347      78.853
  O      149.552     119.088      78.824
  C      151.598     120.207      79.475
  O      151.450     119.850      80.874
  C      152.468     119.139      78.806
  O      153.817     119.610      78.762
  C      152.376     117.956      79.753
  O      153.502     117.084      79.654
  C      152.223     118.657      81.110
  N      151.586     117.784      82.092
  C      152.432     116.992      82.872
  O      153.654     117.042      82.705
  N      151.884     116.120      83.774
  C      150.595     115.987      83.835
  N      150.110     115.085      84.732
  C      149.660     116.752      82.986
  C      150.219     117.630      82.151
  O      147.832     120.233      77.394
  O      147.484     117.752      77.968
  H      153.297     116.260      80.147
  H      147.790     119.874      76.486
  H      148.597     116.588      83.055
  H      149.615     118.231      81.485
  H      153.201     118.967      81.497
  H      151.477     117.372      79.523
  H      152.137     118.885      77.795
  H      152.092     121.186      79.447
  H      150.783     114.565      85.283
  H      149.618     121.044      79.456
  H      149.130     114.865      84.832
  H      150.285     120.740      77.833
  P      154.204     120.575      77.541
  C      156.363     121.929      78.048
  O      155.798     120.738      77.517
  O      153.682     122.008      78.025
  O      153.589     120.174      76.241
  H      152.897     122.269      77.511
  H      157.429     121.888      77.961
  H      156.093     122.023      79.079
  H      155.993     122.773      77.504

 6  7  8  9  10  11  12  13  14  15  16  26  30  31  32  33  35 0
 6-311+G(2d,p)
 ****
 37  38 0
 6-311+G(2d,p)
 ****
 1  2  3  4  5  17  18  19  20  21  22  23  24  25 0
 3-21G
 ****
 27  28  29  34  36  39  40  41  42  43  44  45  46 0
 3-21G
 ****


