%nproc=1
%NoSave
%Mem=1900MB
#P OB98/GEN NMR

erre ene a

0 1
  C     -378.771    -651.877     413.518
  O     -377.667    -652.327     414.282
  H     -379.691    -652.163     414.039
  H     -378.757    -652.343     412.532
  H     -378.746    -650.789     413.422
  P     -376.209    -652.007     413.697
  C     -375.623    -653.901     412.022
  O     -376.182    -652.609     412.200
  C     -374.429    -653.838     411.068
  O     -373.341    -653.116     411.719
  C     -373.878    -655.204     410.653
  O     -373.473    -655.154     409.283
  C     -372.643    -655.371     411.525
  O     -371.714    -656.289     410.982
  C     -372.161    -653.926     411.588
  N     -368.361    -656.028     414.152
  C     -369.058    -656.479     413.043
  N     -368.696    -657.674     412.544
  N     -370.031    -655.814     412.475
  C     -370.278    -654.615     413.068
  C     -369.667    -654.061     414.170
  C     -368.603    -654.813     414.805
  O     -367.958    -654.477     415.784
  N     -370.227    -652.839     414.480
  C     -371.174    -652.656     413.572
  N     -371.238    -653.722     412.696
  O     -375.256    -653.009     414.509
  O     -375.767    -650.589     413.807
  H     -371.585    -656.068     410.034
  H     -374.362    -652.629     414.615
  H     -367.632    -656.586     414.546
  H     -371.830    -651.806     413.497
  H     -371.624    -653.619     410.685
  H     -372.938    -655.726     412.522
  H     -367.928    -658.238     412.903
  H     -374.603    -656.021     410.788
  H     -369.193    -658.025     411.725
  H     -374.717    -653.240     410.194
  H     -376.382    -654.567     411.607
  H     -375.289    -654.299     412.990
  P     -374.606    -654.906     408.180
  C     -375.276    -657.383     407.767
  O     -375.672    -656.115     408.248
  O     -373.826    -655.174     406.795
  O     -375.191    -653.532     408.204
  H     -373.674    -654.337     406.329
  H     -376.084    -658.075     407.878
  H     -374.431    -657.728     408.326
  H     -375.012    -657.306     406.733

 6  7  8  9  10  11  12  13  14  15  26  29  33  34 0
 6-311+G(2d,p)
 ****
 36  38  39  40  41 0
 6-311+G(2d,p)
 ****
 1  2  3  4  5  16  17  18  19  20  21  22  23  24  25 0
 3-21G
 ****
 27  28  30  31  32  35  37  42  43  44  45  46  47 0
 3-21G
 ****
 48  49 0
 3-21G
 ****


