%nproc=1
%NoSave
%Mem=1900MB
#P OB98/GEN NMR

erre ene a

0 1
  C      149.020     283.482     417.934
  O      147.612     283.707     418.093
  P      146.682     284.179     416.880
  C      146.402     286.698     417.358
  O      147.022     285.713     416.537
  C      146.305     288.052     416.652
  O      147.613     288.636     416.479
  C      145.686     287.991     415.253
  O      144.279     287.896     415.334
  C      146.212     289.283     414.638
  O      145.415     290.401     415.060
  C      147.624     289.372     415.243
  N      151.415     290.669     412.065
  C      150.587     291.415     412.836
  N      149.593     290.994     413.652
  C      149.520     289.648     413.648
  C      150.291     288.765     412.919
  C      151.285     289.327     412.091
  N      152.117     288.572     411.297
  N      149.911     287.462     413.155
  C      148.924     287.562     414.031
  N      148.658     288.863     414.359
  O      145.229     283.912     417.077
  O      147.235     283.386     415.604
  H      144.509     290.253     414.732
  H      146.514     283.255     414.960
  H      150.739     292.491     412.786
  H      148.385     286.724     414.455
  H      147.889     290.407     415.495
  H      146.200     289.267     413.541
  H      146.095     287.132     414.703
  H      145.722     288.723     417.289
  H      146.997     286.808     418.274
  H      152.780     289.051     410.711
  H      151.994     287.566     411.273
  H      145.401     286.348     417.628
  P      143.560     286.466     415.221
  C      141.797     286.809     413.391
  O      143.079     286.300     413.698
  O      142.519     286.186     416.251
  O      144.776     285.427     415.318
  H      144.454     284.594     415.719
  H      141.033     286.096     413.714
  H      141.723     286.945     412.310
  H      141.628     287.772     413.878
  H      149.440     283.174     418.869
  H      149.492     284.387     417.612
  H      149.179     282.717     417.203

 3  4  5  6  7  8  9  10  11  12  22  25  29  30  31  32 0
 6-311+G(2d,p)
 ****
 33  36  37 0
 6-311+G(2d,p)
 ****
 1  2  13  14  15  16  17  18  19  20  21  23  24  26 0
 3-21G
 ****
 27  28  34  35  38  39  40  41  42  43  44  45  46  47  48 0
 3-21G
 ****


