%nproc=1
%NoSave
%Mem=1900MB
#P OB98/GEN NMR

erre ene a

0 1
  C     -789.058     474.609      76.801
  O     -790.119     474.605      75.861
  H     -788.344     475.387      76.515
  H     -788.548     473.643      76.793
  H     -789.433     474.825      77.806
  P     -791.385     473.662      76.132
  C     -791.036     471.557      74.671
  O     -790.887     472.150      75.954
  C     -791.321     470.066      74.805
  O     -790.354     469.445      75.678
  C     -792.685     469.751      75.429
  O     -793.731     469.947      74.491
  C     -792.482     468.320      75.876
  O     -792.651     467.409      74.770
  C     -791.006     468.343      76.345
  N     -790.886     468.459      77.807
  C     -791.103     467.290      78.535
  O     -791.418     466.228      78.022
  N     -790.980     467.410      79.890
  C     -790.773     468.576      80.591
  O     -790.755     468.642      81.807
  C     -790.567     469.776      79.766
  C     -790.625     469.661      78.426
  O     -792.625     474.003      75.370
  O     -791.619     473.776      77.711
  H     -793.597     467.449      74.527
  H     -792.391     474.346      77.887
  H     -791.149     466.584      80.441
  H     -790.386     470.714      80.270
  H     -790.493     470.538      77.807
  H     -790.492     467.432      76.027
  H     -793.194     468.024      76.649
  H     -792.840     470.388      76.318
  H     -791.237     469.604      73.819
  H     -790.104     471.696      74.100
  H     -791.851     472.065      74.138
  P     -794.862     471.040      74.773
  C     -796.255     469.006      75.531
  O     -795.935     470.376      75.764
  O     -795.451     471.693      73.559
  O     -794.135     472.122      75.704
  H     -794.142     472.985      75.253
  H     -796.976     468.681      76.251
  H     -795.369     468.413      75.620
  H     -796.660     468.897      74.547

 6  7  8  9  10  11  12  13  14  15  16  26  31  32  33  34  35 0
 6-311+G(2d,p)
 ****
 36  37 0
 6-311+G(2d,p)
 ****
 1  2  3  4  5  17  18  19  20  21  22  23  24  25 0
 3-21G
 ****
 27  28  29  30  38  39  40  41  42  43  44  45 0
 3-21G
 ****


