%nproc=1
%NoSave
%Mem=1900MB
#P OB98/GEN NMR

erre ene a

0 1
  C     -164.775    -345.477    -431.227
  O     -165.263    -346.316    -430.206
  H     -165.626    -344.967    -431.690
  H     -164.268    -346.066    -431.999
  H     -164.095    -344.726    -430.822
  P     -164.231    -347.230    -429.377
  C     -163.938    -348.986    -431.230
  O     -163.309    -347.946    -430.490
  C     -162.942    -350.094    -431.573
  O     -161.937    -349.579    -432.488
  C     -162.198    -350.663    -430.354
  O     -162.203    -352.097    -430.408
  C     -160.774    -350.161    -430.529
  O     -159.806    -350.971    -429.870
  C     -160.674    -350.118    -432.060
  N     -159.544    -349.318    -432.510
  C     -158.443    -350.027    -433.014
  O     -158.473    -351.264    -433.058
  N     -157.323    -349.336    -433.396
  C     -157.286    -348.045    -433.246
  N     -156.136    -347.424    -433.624
  C     -158.413    -347.254    -432.690
  C     -159.500    -347.953    -432.361
  O     -164.867    -348.159    -428.393
  O     -163.220    -346.191    -428.699
  H     -160.004    -350.981    -428.907
  H     -162.798    -346.622    -427.919
  H     -158.322    -346.187    -432.585
  H     -160.372    -347.458    -431.945
  H     -160.575    -351.131    -432.478
  H     -160.700    -349.140    -430.124
  H     -162.620    -350.339    -429.402
  H     -163.471    -350.889    -432.117
  H     -155.383    -347.997    -433.982
  H     -164.367    -348.560    -432.139
  H     -155.981    -346.427    -433.524
  H     -164.738    -349.411    -430.614
  P     -163.527    -352.816    -429.838
  C     -162.168    -353.859    -427.877
  O     -163.304    -353.091    -428.268
  O     -163.465    -354.273    -430.496
  O     -164.792    -352.103    -430.183
  H     -164.168    -354.367    -431.167
  H     -162.153    -353.957    -426.812
  H     -161.275    -353.367    -428.202
  H     -162.223    -354.830    -428.324

 6  7  8  9  10  11  12  13  14  15  16  26  30  31  32  33  35 0
 6-311+G(2d,p)
 ****
 37  38 0
 6-311+G(2d,p)
 ****
 1  2  3  4  5  17  18  19  20  21  22  23  24  25 0
 3-21G
 ****
 27  28  29  34  36  39  40  41  42  43  44  45  46 0
 3-21G
 ****


