%nproc=1
%NoSave
%Mem=1900MB
#P OB98/GEN NMR

erre ene a

0 1
  C      114.349      24.030      61.768
  O      115.726      24.236      61.520
  P      116.749      24.353      62.744
  C      118.805      24.014      61.241
  O      118.149      24.876      62.163
  C      120.037      24.701      60.656
  O      120.866      25.229      61.712
  C      120.940      23.776      59.850
  O      120.388      23.519      58.573
  C      122.239      24.571      59.836
  O      122.204      25.582      58.815
  C      122.230      25.217      61.230
  N      126.453      25.598      64.062
  C      125.942      26.391      63.098
  N      124.827      26.200      62.359
  C      124.239      25.039      62.687
  C      124.662      24.110      63.624
  C      125.818      24.437      64.353
  N      126.315      23.667      65.381
  N      123.806      23.025      63.648
  C      122.892      23.293      62.739
  N      123.077      24.526      62.180
  O      116.839      23.147      63.619
  O      116.210      25.613      63.571
  H      121.960      25.141      57.979
  H      115.969      25.329      64.473
  H      126.495      27.304      62.898
  H      122.075      22.639      62.464
  H      122.562      26.261      61.197
  H      123.115      23.944      59.643
  H      121.098      22.840      60.398
  H      119.698      25.544      60.040
  H      118.103      23.769      60.439
  H      127.060      24.065      65.931
  H      125.700      22.977      65.807
  H      119.094      23.089      61.751
  P      120.133      22.010      58.105
  C      118.410      22.440      56.256
  O      119.740      22.063      56.552
  O      119.214      21.211      58.968
  O      121.602      21.372      58.076
  H      121.549      20.425      58.301
  H      117.742      21.592      56.428
  H      118.353      22.730      55.204
  H      118.095      23.285      56.875
  H      113.823      23.978      60.838
  H      113.966      24.843      62.349
  H      114.216      23.114      62.305

 3  4  5  6  7  8  9  10  11  12  22  25  29  30  31  32 0
 6-311+G(2d,p)
 ****
 33  36  37 0
 6-311+G(2d,p)
 ****
 1  2  13  14  15  16  17  18  19  20  21  23  24  26 0
 3-21G
 ****
 27  28  34  35  38  39  40  41  42  43  44  45  46  47  48 0
 3-21G
 ****


