%nproc=1
%NoSave
%Mem=1900MB
#P OB98/GEN NMR

erre ene a

0 1
  C       87.491      59.504     429.785
  O       88.739      59.595     429.123
  H       87.080      58.508     429.612
  H       86.795      60.245     429.388
  H       87.616      59.647     430.863
  P       89.558      60.974     429.221
  C       89.633      61.146     426.629
  O       89.203      61.737     427.848
  C       88.873      61.738     425.454
  O       87.449      61.549     425.590
  C       89.042      63.241     425.271
  O       90.316      63.622     424.764
  C       87.922      63.522     424.290
  O       88.304      63.083     422.977
  C       86.794      62.638     424.877
  N       85.897      63.375     425.773
  C       85.221      64.469     425.216
  O       85.394      64.786     424.038
  N       84.388      65.207     426.030
  C       84.261      64.899     427.285
  N       83.428      65.666     428.039
  C       84.971      63.765     427.906
  C       85.763      63.057     427.108
  O       91.020      60.851     429.526
  O       88.745      61.847     430.297
  H       87.557      63.270     422.382
  H       89.219      62.706     430.400
  H       84.854      63.567     428.966
  H       86.326      62.209     427.501
  H       86.198      62.182     424.072
  H       87.665      64.585     424.216
  H       88.828      63.778     426.214
  H       89.184      61.188     424.548
  H       82.955      66.437     427.585
  H       89.469      60.064     426.702
  H       83.329      65.547     429.041
  H       90.704      61.323     426.483
  P       90.791      65.136     425.046
  C       90.146      65.466     422.534
  O       90.216      66.021     423.838
  O       92.375      65.071     424.777
  O       90.465      65.658     426.415
  H       92.859      64.982     425.616
  H       89.741      66.191     421.859
  H       89.517      64.601     422.548
  H       91.128      65.188     422.212

 6  7  8  9  10  11  12  13  14  15  16  26  30  31  32  33  35 0
 6-311+G(2d,p)
 ****
 37  38 0
 6-311+G(2d,p)
 ****
 1  2  3  4  5  17  18  19  20  21  22  23  24  25 0
 3-21G
 ****
 27  28  29  34  36  39  40  41  42  43  44  45  46 0
 3-21G
 ****


