%nproc=1
%NoSave
%Mem=1900MB
#P OB98/GEN NMR

erre ene a

0 1
  C      387.342    -138.096    -200.086
  O      386.028    -138.627    -199.976
  P      385.136    -138.879    -201.278
  C      385.522    -141.460    -201.588
  O      384.647    -140.397    -201.266
  C      384.961    -142.767    -201.009
  O      385.122    -142.772    -199.573
  C      383.471    -142.923    -201.315
  O      383.287    -143.702    -202.489
  C      382.948    -143.582    -200.056
  O      383.193    -145.005    -200.081
  C      383.807    -142.911    -198.961
  N      383.400    -141.580    -198.469
  C      382.153    -141.420    -197.868
  O      381.369    -142.354    -197.663
  N      381.828    -140.140    -197.488
  C      382.628    -139.039    -197.629
  O      382.242    -137.883    -197.521
  C      384.013    -139.313    -198.026
  C      384.327    -140.544    -198.436
  O      386.206    -138.846    -202.460
  O      384.024    -137.900    -201.502
  H      382.799    -145.347    -200.894
  H      386.213    -137.964    -202.906
  H      380.867    -139.997    -197.176
  H      384.724    -138.493    -198.012
  H      385.345    -140.760    -198.776
  H      383.921    -143.557    -198.080
  H      381.861    -143.462    -199.975
  H      382.994    -141.939    -201.421
  H      385.534    -143.610    -201.419
  H      386.522    -141.259    -201.195
  H      385.621    -141.544    -202.681
  P      381.966    -143.499    -203.368
  C      382.458    -141.404    -204.769
  O      382.474    -142.827    -204.732
  O      380.822    -142.805    -202.683
  O      381.574    -144.996    -203.793
  H      380.880    -145.347    -203.193
  H      382.991    -141.075    -205.668
  H      382.962    -141.001    -203.886
  H      381.425    -141.051    -204.805
  H      387.772    -138.002    -199.111
  H      387.300    -137.133    -200.551
  H      387.944    -138.753    -200.679

 3  4  5  6  7  8  9  10  11  12  13  23  28  29  30  31  32 0
 6-311+G(2d,p)
 ****
 33  34 0
 6-311+G(2d,p)
 ****
 1  2  14  15  16  17  18  19  20  21  22  24  25  26  27 0
 3-21G
 ****
 35  36  37  38  39  40  41  42  43  44  45 0
 3-21G
 ****


