%nproc=1
%NoSave
%Mem=1900MB
#P OB98/GEN NMR

erre ene a

0 1
  C      -88.358     251.269     292.140
  O      -88.608     252.253     291.129
  P      -89.322     251.811     289.764
  C      -91.670     252.221     290.755
  O      -90.773     252.504     289.688
  C      -92.937     253.082     290.642
  O      -92.602     254.500     290.722
  C      -93.677     252.868     289.313
  O      -95.095     253.012     289.500
  C      -93.201     254.037     288.470
  O      -94.096     254.309     287.390
  C      -93.109     255.133     289.530
  N      -92.976     259.949     287.773
  C      -94.006     259.154     288.150
  N      -93.964     257.894     288.628
  C      -92.695     257.460     288.719
  C      -91.541     258.162     288.383
  C      -91.716     259.462     287.880
  N      -90.668     260.257     287.471
  N      -90.418     257.390     288.606
  C      -90.887     256.229     289.024
  N      -92.251     256.234     289.140
  O      -89.306     250.342     289.474
  O      -88.496     252.623     288.652
  H      -94.125     253.516     286.825
  H      -88.336     252.037     287.884
  H      -94.998     259.594     288.046
  H      -90.286     255.355     289.240
  H      -94.094     255.549     289.769
  H      -92.209     253.809     288.046
  H      -93.482     251.904     288.832
  H      -93.594     252.858     291.494
  H      -91.175     252.406     291.711
  H      -90.894     261.132     287.017
  H      -89.744     259.854     287.410
  H      -91.910     251.151     290.749
  P      -96.033     252.201     288.465
  C      -96.399     250.075     289.947
  O      -96.944     251.236     289.366
  O      -95.266     251.545     287.361
  O      -97.036     253.344     287.960
  H      -97.455     253.860     288.673
  H      -97.141     249.636     290.622
  H      -95.499     250.312     290.530
  H      -96.148     249.348     289.167
  H      -87.879     251.732     292.978
  H      -87.723     250.504     291.744
  H      -89.285     250.836     292.453

 3  4  5  6  7  8  9  10  11  12  22  25  29  30  31  32 0
 6-311+G(2d,p)
 ****
 33  36  37 0
 6-311+G(2d,p)
 ****
 1  2  13  14  15  16  17  18  19  20  21  23  24  26 0
 3-21G
 ****
 27  28  34  35  38  39  40  41  42  43  44  45  46  47  48 0
 3-21G
 ****


