%nproc=1
%NoSave
%Mem=1900MB
#P OB98/GEN NMR

erre ene a

0 1
  C      703.443    -848.790    -284.512
  O      703.051    -847.726    -285.404
  P      701.752    -847.936    -286.335
  C      700.660    -846.814    -288.407
  O      701.753    -846.844    -287.495
  C      700.687    -845.523    -289.243
  O      700.251    -844.375    -288.493
  C      702.078    -845.169    -289.762
  O      702.387    -845.889    -290.937
  C      701.906    -843.704    -290.084
  O      701.239    -843.543    -291.371
  C      700.988    -843.218    -288.960
  N      700.516    -840.247    -284.821
  C      699.622    -840.622    -285.755
  N      699.841    -841.406    -286.847
  C      701.100    -841.826    -286.889
  C      702.132    -841.498    -286.011
  C      701.802    -840.673    -284.920
  N      702.711    -840.279    -283.964
  N      703.311    -842.103    -286.386
  C      703.013    -842.764    -287.485
  N      701.701    -842.621    -287.830
  O      700.542    -847.475    -285.372
  O      701.552    -849.342    -286.774
  H      700.950    -842.597    -291.400
  H      699.763    -848.009    -285.550
  H      698.612    -840.254    -285.634
  H      703.703    -843.377    -288.052
  H      700.244    -842.480    -289.284
  H      702.860    -843.150    -290.176
  H      702.849    -845.298    -288.981
  H      700.007    -845.652    -290.101
  H      699.714    -846.860    -287.860
  H      702.391    -839.713    -283.190
  H      703.660    -840.626    -284.024
  H      700.706    -847.705    -289.060
  P      703.088    -847.341    -290.747
  C      703.925    -849.156    -292.419
  O      703.606    -847.782    -292.191
  O      701.856    -848.297    -290.452
  O      704.123    -847.376    -289.655
  H      702.142    -849.034    -289.850
  H      703.948    -849.325    -293.496
  H      703.182    -849.804    -291.935
  H      704.899    -849.358    -292.003
  H      704.317    -848.496    -283.969
  H      703.656    -849.671    -285.080
  H      702.647    -848.992    -283.826

 3  4  5  6  7  8  9  10  11  12  22  25  29  30  31  32 0
 6-311+G(2d,p)
 ****
 33  36  37 0
 6-311+G(2d,p)
 ****
 1  2  13  14  15  16  17  18  19  20  21  23  24  26 0
 3-21G
 ****
 27  28  34  35  38  39  40  41  42  43  44  45  46  47  48 0
 3-21G
 ****


