%nproc=1
%NoSave
%Mem=1900MB
#P OB98/GEN NMR

erre ene a

0 1
  C      370.062    -446.863    1272.058
  O      369.667    -447.188    1273.377
  H      369.392    -446.097    1271.671
  H      369.984    -447.749    1271.418
  H      371.090    -446.478    1272.039
  P      370.582    -448.181    1274.245
  C      372.219    -449.954    1273.305
  O      370.876    -449.458    1273.315
  C      372.492    -450.644    1271.978
  O      372.606    -449.676    1270.913
  C      373.815    -451.426    1271.961
  O      373.690    -452.644    1272.658
  C      374.051    -451.567    1270.471
  O      373.262    -452.641    1269.926
  C      373.534    -450.204    1269.940
  N      374.624    -449.252    1269.679
  C      375.206    -449.315    1268.423
  O      374.875    -450.134    1267.569
  N      376.222    -448.419    1268.174
  C      376.764    -447.569    1269.117
  O      377.723    -446.842    1268.871
  C      376.118    -447.555    1270.427
  C      375.100    -448.396    1270.657
  O      370.090    -448.494    1275.611
  O      372.005    -447.444    1274.277
  H      373.425    -453.414    1270.515
  H      372.132    -447.039    1275.170
  H      376.667    -448.454    1267.275
  H      376.516    -446.884    1271.180
  H      374.614    -448.409    1271.628
  H      372.968    -450.345    1269.007
  H      375.086    -451.762    1270.230
  H      374.629    -450.804    1272.392
  H      371.651    -451.313    1271.745
  H      372.328    -450.671    1274.129
  H      372.897    -449.114    1273.476
  P      375.006    -453.484    1273.042
  C      377.072    -454.353    1271.783
  O      375.711    -453.949    1271.682
  O      374.803    -454.563    1274.047
  O      376.011    -452.362    1273.609
  H      376.237    -452.578    1274.545
  H      377.432    -454.640    1270.817
  H      377.149    -455.184    1272.453
  H      377.659    -453.539    1272.155

 6  7  8  9  10  11  12  13  14  15  16  26  31  32  33  34  35 0
 6-311+G(2d,p)
 ****
 36  37 0
 6-311+G(2d,p)
 ****
 1  2  3  4  5  17  18  19  20  21  22  23  24  25 0
 3-21G
 ****
 27  28  29  30  38  39  40  41  42  43  44  45 0
 3-21G
 ****


