%nproc=1
%NoSave
%Mem=1900MB
#P OB98/GEN NMR

erre ene a

0 1
  C     -102.403     687.155     191.627
  O     -101.342     686.220     191.581
  H     -103.004     686.962     192.516
  H     -103.037     687.038     190.742
  H     -102.010     688.174     191.671
  P     -100.237     686.427     190.442
  C     -100.250     684.080     189.263
  O     -100.619     685.454     189.226
  C      -99.943     683.580     187.853
  O     -101.076     683.767     186.981
  C      -98.824     684.332     187.163
  O      -97.549     684.041     187.703
  C      -99.010     683.852     185.728
  O      -98.457     682.541     185.550
  C     -100.553     683.811     185.621
  N     -101.092     684.941     184.873
  C     -101.692     684.628     183.649
  O     -101.741     683.459     183.260
  N     -102.178     685.651     182.871
  C     -102.102     686.874     183.299
  N     -102.599     687.847     182.485
  C     -101.503     687.247     184.598
  C     -101.020     686.238     185.326
  O      -98.949     685.722     191.071
  O     -100.018     687.844     190.017
  H      -98.712     682.253     184.654
  H      -99.107     684.801     191.358
  H     -101.470     688.279     184.918
  H     -100.566     686.425     186.288
  H     -100.881     682.886     185.129
  H      -98.516     684.506     185.006
  H      -99.019     685.411     187.184
  H      -99.730     682.506     187.913
  H     -102.979     687.558     181.592
  H     -101.034     683.477     189.731
  H     -102.565     688.832     182.697
  H      -99.356     683.995     189.890
  P      -96.662     685.192     188.373
  C      -95.290     685.841     186.294
  O      -96.320     686.233     187.199
  O      -95.485     684.721     189.153
  O      -97.735     686.024     189.249
  H      -98.462     686.402     188.731
  H      -95.150     686.607     185.560
  H      -95.569     684.929     185.809
  H      -94.378     685.693     186.834

 6  7  8  9  10  11  12  13  14  15  16  26  30  31  32  33  35 0
 6-311+G(2d,p)
 ****
 37  38 0
 6-311+G(2d,p)
 ****
 1  2  3  4  5  17  18  19  20  21  22  23  24  25 0
 3-21G
 ****
 27  28  29  34  36  39  40  41  42  43  44  45  46 0
 3-21G
 ****


