%nproc=1
%NoSave
%Mem=1900MB
#P OB98/GEN NMR

erre ene a

0 1
  C      896.053    -697.871     939.717
  O      894.921    -697.166     939.252
  H      896.631    -697.228     940.389
  H      896.693    -698.149     938.874
  H      895.759    -698.771     940.268
  P      893.820    -698.008     938.443
  C      895.159    -697.550     936.264
  O      894.538    -698.518     937.095
  C      895.325    -698.113     934.843
  O      896.246    -699.236     934.896
  C      894.012    -698.633     934.221
  O      894.042    -698.345     932.829
  C      894.105    -700.138     934.431
  O      893.309    -700.889     933.522
  C      895.610    -700.365     934.252
  N      896.068    -701.626     934.819
  C      896.443    -702.622     933.942
  O      896.487    -702.497     932.701
  N      896.767    -703.828     934.502
  C      896.727    -704.133     935.837
  O      897.005    -705.234     936.288
  C      896.315    -703.038     936.735
  C      896.002    -701.846     936.185
  O      892.819    -696.867     937.929
  O      893.119    -699.076     939.217
  H      892.113    -696.708     938.583
  H      892.384    -700.834     933.842
  H      897.038    -704.561     933.871
  H      896.256    -703.231     937.784
  H      895.675    -701.021     936.820
  H      895.878    -700.328     933.178
  H      893.796    -700.388     935.452
  H      893.112    -698.206     934.680
  H      895.776    -697.347     934.219
  H      896.163    -697.308     936.674
  H      894.555    -696.634     936.247
  P      893.433    -696.929     932.363
  C      891.232    -697.785     931.210
  O      891.850    -697.123     932.327
  O      893.877    -696.903     930.803
  O      893.946    -695.782     933.175
  H      893.850    -697.788     930.406
  H      890.173    -697.823     931.359
  H      891.616    -698.780     931.128
  H      891.447    -697.245     930.312

 6  7  8  9  10  11  12  13  14  15  16  27  31  32  33  34  35 0
 6-311+G(2d,p)
 ****
 36  37 0
 6-311+G(2d,p)
 ****
 1  2  3  4  5  17  18  19  20  21  22  23  24  25 0
 3-21G
 ****
 26  28  29  30  38  39  40  41  42  43  44  45 0
 3-21G
 ****


