%nproc=1
%NoSave
%Mem=1900MB
#P OB98/GEN NMR

erre ene a

0 1
  C      328.955    -207.088     281.985
  O      329.613    -206.224     281.076
  H      328.554    -207.940     281.426
  H      328.123    -206.567     282.468
  H      329.646    -207.460     282.740
  P      330.424    -204.970     281.655
  C      329.840    -202.760     282.854
  O      329.350    -203.979     282.312
  C      329.025    -201.584     282.308
  O      327.623    -201.776     282.580
  C      329.402    -200.242     282.916
  O      330.613    -199.749     282.381
  C      328.170    -199.420     282.571
  O      328.231    -198.948     281.214
  C      327.032    -200.460     282.740
  N      326.345    -200.341     284.024
  C      324.978    -200.095     283.969
  O      324.357    -199.939     282.913
  N      324.334    -200.000     285.180
  C      324.936    -200.012     286.403
  O      324.330    -199.832     287.455
  C      326.386    -200.252     286.403
  C      327.013    -200.401     285.232
  O      331.380    -204.325     280.708
  O      331.183    -205.573     282.933
  H      328.937    -198.273     281.193
  H      332.127    -205.692     282.720
  H      323.353    -199.805     285.157
  H      326.900    -200.280     287.351
  H      328.088    -200.579     285.210
  H      326.290    -200.350     281.940
  H      328.060    -198.542     283.209
  H      329.463    -200.329     284.008
  H      329.158    -201.562     281.213
  H      330.890    -202.644     282.562
  H      329.771    -202.800     283.951
  P      331.276    -198.431     282.992
  C      330.455    -196.035     283.441
  O      330.341    -197.184     282.611
  O      332.733    -198.241     282.697
  O      331.037    -198.586     284.573
  H      331.906    -198.601     285.036
  H      329.788    -195.275     283.091
  H      331.460    -195.670     283.409
  H      330.202    -196.296     284.448

 6  7  8  9  10  11  12  13  14  15  16  26  31  32  33  34  35 0
 6-311+G(2d,p)
 ****
 36  37 0
 6-311+G(2d,p)
 ****
 1  2  3  4  5  17  18  19  20  21  22  23  24  25 0
 3-21G
 ****
 27  28  29  30  38  39  40  41  42  43  44  45 0
 3-21G
 ****


