%nproc=1
%NoSave
%Mem=1900MB
#P OB98/GEN NMR

erre ene a

0 1
  C      -14.905     -52.077    -175.686
  O      -15.985     -51.215    -176.005
  P      -17.314     -51.307    -175.113
  C      -18.467     -52.844    -176.861
  O      -18.081     -52.663    -175.505
  C      -19.244     -54.151    -177.033
  O      -18.393     -55.273    -176.675
  C      -20.501     -54.239    -176.163
  O      -21.512     -54.980    -176.863
  C      -20.057     -55.079    -174.984
  O      -21.165     -55.716    -174.346
  C      -19.084     -56.039    -175.667
  N      -18.535     -59.336    -171.873
  C      -19.581     -59.189    -172.766
  N      -20.662     -59.975    -172.559
  N      -19.566     -58.355    -173.771
  C      -18.421     -57.632    -173.849
  C      -17.312     -57.698    -173.036
  C      -17.348     -58.617    -171.920
  O      -16.468     -58.775    -171.077
  N      -16.332     -56.833    -173.451
  C      -16.860     -56.210    -174.487
  N      -18.140     -56.635    -174.745
  O      -18.240     -50.158    -175.735
  O      -17.101     -51.090    -173.653
  H      -20.807     -56.212    -173.585
  H      -18.264     -49.389    -175.133
  H      -18.602     -59.986    -171.108
  H      -16.376     -55.433    -175.064
  H      -19.614     -56.852    -176.178
  H      -19.550     -54.452    -174.242
  H      -20.762     -60.587    -171.765
  H      -20.909     -53.269    -175.857
  H      -21.459     -59.854    -173.172
  H      -19.498     -54.267    -178.095
  H      -17.573     -52.874    -177.484
  H      -19.081     -51.996    -177.182
  P      -22.930     -54.243    -177.041
  C      -23.877     -55.224    -174.822
  O      -23.521     -54.074    -175.561
  O      -23.853     -55.376    -177.692
  O      -22.873     -53.002    -177.868
  H      -24.576     -54.966    -178.205
  H      -23.243     -55.283    -173.933
  H      -23.761     -56.143    -175.404
  H      -24.921     -55.135    -174.509
  H      -14.096     -51.901    -176.363
  H      -15.224     -53.095    -175.769
  H      -14.580     -51.886    -174.685

 3  4  5  6  7  8  9  10  11  12  23  26  30  31 0
 6-311+G(2d,p)
 ****
 33  35  36  37  38 0
 6-311+G(2d,p)
 ****
 1  2  13  14  15  16  17  18  19  20  21  22  24  25 0
 3-21G
 ****
 27  28  29  32  34  39  40  41  42  43  44  45  46  47  48  49 0
 3-21G
 ****


