%nproc=1
%NoSave
%Mem=1900MB
#P OB98/GEN NMR

erre ene a

0 1
  C      -59.837      -8.420     239.405
  O      -60.917      -9.042     240.071
  H      -59.923      -8.622     238.335
  H      -58.889      -8.829     239.763
  H      -59.856      -7.337     239.557
  P      -61.146      -8.733     241.626
  C      -62.422      -6.609     240.916
  O      -61.412      -7.157     241.753
  C      -62.939      -5.302     241.514
  O      -63.974      -4.746     240.676
  C      -63.564      -5.457     242.896
  O      -62.567      -5.610     243.888
  C      -64.366      -4.166     242.988
  O      -63.522      -3.064     243.347
  C      -64.880      -4.019     241.533
  N      -66.255      -4.485     241.359
  C      -67.250      -3.709     241.952
  O      -67.009      -2.707     242.623
  N      -68.535      -4.140     241.758
  C      -68.908      -5.287     241.121
  O      -70.075      -5.658     241.022
  C      -67.815      -6.084     240.546
  C      -66.558      -5.653     240.689
  O      -60.107      -9.270     242.557
  O      -62.586      -9.367     241.927
  H      -63.136      -3.279     244.220
  H      -62.481     -10.233     242.360
  H      -69.267      -3.600     242.189
  H      -68.070      -7.003     240.038
  H      -65.735      -6.228     240.277
  H      -64.833      -2.966     241.222
  H      -65.156      -4.214     243.738
  H      -64.260      -6.302     242.906
  H      -62.108      -4.587     241.541
  H      -63.247      -7.327     240.842
  H      -62.005      -6.440     239.919
  P      -62.963      -5.709     245.435
  C      -62.406      -8.200     245.634
  O      -63.432      -7.218     245.720
  O      -63.910      -4.663     245.919
  O      -61.561      -5.615     246.200
  H      -61.468      -4.735     246.618
  H      -62.818      -9.166     245.839
  H      -61.641      -7.980     246.349
  H      -61.987      -8.193     244.649

 6  7  8  9  10  11  12  13  14  15  16  26  31  32  33  34  35 0
 6-311+G(2d,p)
 ****
 36  37 0
 6-311+G(2d,p)
 ****
 1  2  3  4  5  17  18  19  20  21  22  23  24  25 0
 3-21G
 ****
 27  28  29  30  38  39  40  41  42  43  44  45 0
 3-21G
 ****


