%nproc=1
%NoSave
%Mem=1900MB
#P OB98/GEN NMR

erre ene a

0 1
  C     -263.925     427.497     271.814
  O     -262.665     427.208     271.236
  H     -264.723     427.075     271.201
  H     -263.969     427.046     272.809
  H     -264.058     428.576     271.908
  P     -262.408     427.751     269.749
  C     -263.467     427.360     267.413
  O     -263.476     427.018     268.794
  C     -264.112     426.243     266.595
  O     -263.268     425.066     266.684
  C     -265.529     425.851     267.050
  O     -266.458     426.001     265.973
  C     -265.420     424.369     267.392
  O     -266.550     423.611     266.964
  C     -264.146     423.935     266.671
  N     -264.308     418.860     267.160
  C     -264.753     419.677     266.181
  N     -264.587     421.011     266.056
  C     -263.846     421.490     267.076
  C     -263.305     420.782     268.134
  C     -263.578     419.401     268.167
  N     -263.172     418.578     269.192
  N     -262.615     421.622     268.987
  C     -262.776     422.827     268.479
  N     -263.532     422.800     267.333
  O     -261.013     427.070     269.343
  O     -262.355     429.236     269.617
  H     -266.555     423.641     265.988
  H     -260.419     427.744     268.965
  H     -265.328     419.198     265.393
  H     -262.415     423.751     268.917
  H     -264.336     423.663     265.626
  H     -265.324     424.260     268.480
  H     -265.872     426.429     267.918
  H     -264.123     426.552     265.543
  H     -262.432     427.500     267.075
  H     -263.510     417.627     269.193
  H     -262.722     418.994     269.995
  H     -264.006     428.303     267.276
  P     -267.511     427.209     266.090
  C     -269.493     427.792     267.679
  O     -268.584     426.800     267.217
  O     -268.345     427.092     264.730
  O     -266.884     428.554     266.248
  H     -268.709     427.965     264.479
  H     -270.137     427.368     268.421
  H     -270.080     428.148     266.858
  H     -268.946     428.607     268.105

 6  7  8  9  10  11  12  13  14  15  25  28  32  33  34  35 0
 6-311+G(2d,p)
 ****
 36  39  40 0
 6-311+G(2d,p)
 ****
 1  2  3  4  5  16  17  18  19  20  21  22  23  24 0
 3-21G
 ****
 26  27  29  30  31  37  38  41  42  43  44  45  46  47  48 0
 3-21G
 ****


