%nproc=1
%NoSave
%Mem=1900MB
#P OB98/GEN NMR

erre ene a

0 1
  C       15.491     406.280      30.547
  O       16.404     405.193      30.499
  P       17.882     405.385      29.921
  C       17.127     404.681      27.506
  O       18.018     404.522      28.590
  C       17.720     403.999      26.269
  O       18.773     404.812      25.708
  C       18.311     402.634      26.610
  O       17.368     401.601      26.367
  C       19.527     402.563      25.704
  O       19.142     402.162      24.375
  C       20.000     404.034      25.701
  N       20.838     404.499      26.826
  C       22.181     404.129      26.880
  O       22.738     403.452      26.023
  N       22.867     404.551      27.989
  C       22.361     405.325      28.996
  O       22.902     405.490      30.083
  C       21.037     405.902      28.744
  C       20.339     405.453      27.702
  O       18.786     404.592      30.975
  O       18.326     406.803      29.757
  H       19.924     402.279      23.802
  H       19.189     405.209      31.614
  H       23.800     404.169      28.106
  H       20.652     406.631      29.446
  H       19.341     405.836      27.517
  H       20.540     404.271      24.777
  H       20.235     401.814      26.052
  H       18.652     402.616      27.652
  H       16.935     403.894      25.508
  H       16.960     405.746      27.313
  H       16.157     404.239      27.752
  P       16.714     400.821      27.601
  C       18.673     399.173      27.651
  O       17.278     399.325      27.499
  O       15.231     400.943      27.727
  O       17.471     401.443      28.870
  H       16.918     402.139      29.280
  H       18.904     398.107      27.740
  H       19.023     399.686      28.551
  H       19.188     399.571      26.772
  H       14.563     405.948      30.964
  H       15.325     406.650      29.557
  H       15.897     407.060      31.156

 3  4  5  6  7  8  9  10  11  12  13  23  28  29  30  31  32 0
 6-311+G(2d,p)
 ****
 33  34 0
 6-311+G(2d,p)
 ****
 1  2  14  15  16  17  18  19  20  21  22  24  25  26  27 0
 3-21G
 ****
 35  36  37  38  39  40  41  42  43  44  45 0
 3-21G
 ****


