%nproc=1
%NoSave
%Mem=1900MB
#P OB98/GEN NMR

erre ene a

0 1
  C     -174.659     -96.296      51.924
  O     -175.784     -97.152      51.872
  H     -173.787     -96.887      52.219
  H     -174.819     -95.516      52.672
  H     -174.466     -95.846      50.947
  P     -177.176     -96.573      51.329
  C     -178.174     -96.275      53.690
  O     -177.785     -95.634      52.482
  C     -179.688     -96.152      53.906
  O     -180.025     -94.744      54.032
  C     -180.522     -96.733      52.761
  O     -181.688     -97.353      53.299
  C     -180.915     -95.510      51.953
  O     -182.122     -95.709      51.221
  C     -181.028     -94.441      53.038
  N     -183.058     -89.830      52.618
  C     -183.499     -90.939      53.315
  N     -184.665     -90.807      53.988
  N     -182.854     -92.079      53.349
  C     -181.692     -92.056      52.649
  C     -181.148     -91.026      51.919
  C     -181.887     -89.779      51.874
  O     -181.551     -88.766      51.259
  N     -179.965     -91.399      51.334
  C     -179.796     -92.654      51.710
  N     -180.821     -93.104      52.501
  O     -178.126     -97.603      50.799
  O     -176.755     -95.527      50.195
  H     -181.892     -96.242      50.430
  H     -176.923     -95.888      49.307
  H     -183.597     -88.983      52.617
  H     -178.955     -93.279      51.438
  H     -182.008     -94.440      53.524
  H     -180.117     -95.265      51.239
  H     -185.196     -89.953      54.024
  H     -179.962     -97.458      52.168
  H     -184.993     -91.596      54.531
  H     -179.943     -96.627      54.860
  H     -177.644     -95.793      54.521
  H     -177.885     -97.329      53.650
  P     -181.692     -98.940      53.536
  C     -182.247     -99.341      51.057
  O     -181.384     -99.672      52.138
  O     -182.867     -99.477      54.282
  O     -180.331     -99.177      54.361
  H     -180.469     -99.907      54.998
  H     -181.950     -99.884      50.184
  H     -182.187     -98.291      50.862
  H     -183.253     -99.600      51.312

 6  7  8  9  10  11  12  13  14  15  26  29  33  34 0
 6-311+G(2d,p)
 ****
 36  38  39  40  41 0
 6-311+G(2d,p)
 ****
 1  2  3  4  5  16  17  18  19  20  21  22  23  24  25 0
 3-21G
 ****
 27  28  30  31  32  35  37  42  43  44  45  46  47 0
 3-21G
 ****
 48  49 0
 3-21G
 ****


