%nproc=1
%NoSave
%Mem=1900MB
#P OB98/GEN NMR

erre ene a

0 1
  C      269.676    -242.183    -188.002
  O      270.370    -243.405    -188.294
  P      271.686    -243.737    -187.441
  C      271.194    -245.637    -185.734
  O      271.658    -245.293    -187.036
  C      271.452    -247.121    -185.421
  O      270.462    -247.967    -186.066
  C      272.826    -247.617    -185.901
  O      273.262    -248.657    -185.011
  C      272.503    -248.223    -187.252
  O      273.536    -249.119    -187.683
  C      271.156    -248.876    -186.952
  N      270.584    -251.950    -190.909
  C      271.517    -251.982    -189.879
  N      272.393    -253.004    -189.900
  N      271.569    -251.089    -188.926
  C      270.594    -250.146    -189.029
  C      269.628    -250.001    -189.993
  C      269.595    -250.982    -191.055
  O      268.803    -251.006    -192.005
  N      268.837    -248.906    -189.758
  C      269.338    -248.378    -188.653
  N      270.375    -249.116    -188.150
  O      271.402    -242.988    -186.045
  O      272.953    -243.257    -188.069
  H      274.379    -248.614    -187.676
  H      271.987    -242.202    -185.974
  H      270.595    -252.659    -191.628
  H      268.979    -247.474    -188.177
  H      271.262    -249.838    -186.430
  H      272.407    -247.430    -188.003
  H      272.379    -253.752    -190.577
  H      273.601    -246.845    -185.954
  H      273.064    -253.067    -189.135
  H      271.362    -247.267    -184.339
  H      270.123    -245.431    -185.649
  H      271.683    -244.987    -184.999
  P      274.472    -248.310    -184.020
  C      272.991    -248.332    -181.889
  O      274.065    -248.917    -182.592
  O      274.343    -246.723    -183.808
  O      275.825    -248.699    -184.525
  H      275.205    -246.344    -183.566
  H      272.103    -248.969    -181.985
  H      272.753    -247.327    -182.261
  H      273.263    -248.244    -180.828
  H      268.824    -242.094    -188.644
  H      270.332    -241.353    -188.163
  H      269.355    -242.190    -186.981

 3  4  5  6  7  8  9  10  11  12  23  26  30  31 0
 6-311+G(2d,p)
 ****
 33  35  36  37  38 0
 6-311+G(2d,p)
 ****
 1  2  13  14  15  16  17  18  19  20  21  22  24  25 0
 3-21G
 ****
 27  28  29  32  34  39  40  41  42  43  44  45  46  47  48  49 0
 3-21G
 ****


