%nproc=1
%NoSave
%Mem=1900MB
#P OB98/GEN NMR

erre ene a

0 1
  C     1275.031    1101.276    -342.503
  O     1274.559    1100.502    -343.598
  H     1274.959    1100.671    -341.599
  H     1274.437    1102.177    -342.376
  H     1276.086    1101.543    -342.665
  P     1274.460    1101.203    -345.031
  C     1271.956    1100.667    -345.413
  O     1273.303    1100.442    -345.835
  C     1271.000    1099.669    -346.068
  O     1271.363    1098.328    -345.644
  C     1269.516    1099.883    -345.706
  O     1268.720    1099.458    -346.802
  C     1269.359    1098.940    -344.530
  O     1268.014    1098.717    -344.218
  C     1270.182    1097.746    -345.024
  N     1270.548    1096.827    -343.956
  C     1269.530    1095.925    -343.568
  O     1268.432    1095.930    -344.122
  N     1269.791    1095.024    -342.563
  C     1270.949    1095.092    -341.945
  N     1271.141    1094.192    -340.942
  C     1271.996    1096.071    -342.284
  C     1271.738    1096.876    -343.277
  O     1275.743    1101.342    -345.778
  O     1273.802    1102.645    -344.726
  H     1267.537    1099.561    -344.099
  H     1274.488    1103.326    -344.769
  H     1272.938    1096.097    -341.698
  H     1272.464    1097.650    -343.612
  H     1269.639    1097.188    -345.805
  H     1269.819    1099.372    -343.629
  H     1269.289    1100.927    -345.441
  H     1271.147    1099.722    -347.159
  H     1270.383    1093.538    -340.727
  H     1271.696    1101.684    -345.689
  H     1271.977    1094.162    -340.365
  H     1271.884    1100.573    -344.311
  P     1267.456    1100.281    -347.354
  C     1265.654    1098.536    -347.898
  O     1266.667    1099.386    -348.417
  O     1267.785    1101.650    -347.835
  O     1266.453    1100.356    -346.103
  H     1265.940    1101.182    -346.167
  H     1265.200    1097.991    -348.699
  H     1264.912    1099.127    -347.403
  H     1266.087    1097.850    -347.200

 6  7  8  9  10  11  12  13  14  15  16  26  30  31  32  33  35 0
 6-311+G(2d,p)
 ****
 37  38 0
 6-311+G(2d,p)
 ****
 1  2  3  4  5  17  18  19  20  21  22  23  24  25 0
 3-21G
 ****
 27  28  29  34  36  39  40  41  42  43  44  45  46 0
 3-21G
 ****


