%nproc=1
%NoSave
%Mem=1900MB
#P OB98/GEN NMR

erre ene a

0 1
  C      219.814     112.989    -173.115
  O      219.793     111.606    -173.409
  H      219.570     113.545    -174.024
  H      220.809     113.287    -172.775
  H      219.070     113.224    -172.347
  P      220.152     110.613    -172.200
  C      220.723     108.876    -174.041
  O      221.114     109.487    -172.820
  C      221.944     108.351    -174.790
  O      222.662     109.437    -175.419
  C      222.950     107.612    -173.915
  O      222.562     106.264    -173.717
  C      224.218     107.741    -174.750
  O      224.255     106.763    -175.808
  C      224.086     109.160    -175.320
  N      228.525     110.771    -173.530
  C      228.232     109.720    -174.374
  N      229.276     108.950    -174.758
  N      227.028     109.439    -174.799
  C      226.082     110.274    -174.306
  C      226.247     111.361    -173.476
  C      227.590     111.677    -173.043
  O      227.923     112.632    -172.346
  N      225.049     111.971    -173.213
  C      224.157     111.235    -173.851
  N      224.734     110.183    -174.516
  O      218.782     109.821    -171.947
  O      220.644     111.271    -170.957
  H      224.238     105.871    -175.421
  H      218.722     109.582    -171.003
  H      229.473     110.946    -173.255
  H      223.093     111.420    -173.861
  H      224.504     109.240    -176.329
  H      225.113     107.582    -174.146
  H      230.131     108.910    -174.219
  H      223.088     108.129    -172.959
  H      229.067     108.164    -175.360
  H      221.579     107.696    -175.594
  H      220.211     109.617    -174.663
  H      220.031     108.052    -173.826
  P      222.318     105.774    -172.207
  C      221.320     103.539    -173.096
  O      222.277     104.169    -172.255
  O      220.794     106.170    -171.932
  O      223.245     106.366    -171.201
  H      220.616     106.168    -170.972
  H      221.420     102.477    -173.017
  H      221.485     103.838    -174.110
  H      220.335     103.828    -172.794

 6  7  8  9  10  11  12  13  14  15  26  29  33  34 0
 6-311+G(2d,p)
 ****
 36  38  39  40  41 0
 6-311+G(2d,p)
 ****
 1  2  3  4  5  16  17  18  19  20  21  22  23  24  25 0
 3-21G
 ****
 27  28  30  31  32  35  37  42  43  44  45  46  47 0
 3-21G
 ****
 48  49 0
 3-21G
 ****


