%nproc=1
%NoSave
%Mem=1900MB
#P OB98/GEN NMR

erre ene a

0 1
  C      546.022      68.051     -54.063
  O      546.998      67.107     -53.612
  P      547.083      66.815     -52.034
  C      546.270      64.342     -51.958
  O      547.357      65.255     -51.816
  C      546.745      63.054     -52.632
  O      547.055      63.278     -54.021
  C      548.020      62.490     -52.025
  O      547.737      61.821     -50.810
  C      548.527      61.579     -53.133
  O      548.008      60.241     -53.001
  C      547.988      62.253     -54.414
  N      549.046      62.801     -55.251
  C      549.870      61.860     -55.889
  O      549.690      60.655     -55.701
  N      550.882      62.322     -56.687
  C      551.080      63.594     -56.821
  N      552.104      63.988     -57.625
  C      550.247      64.622     -56.146
  C      549.255      64.152     -55.388
  O      545.563      66.996     -51.551
  O      548.006      67.736     -51.302
  H      548.417      59.885     -52.183
  H      545.539      67.352     -50.646
  H      550.449      65.672     -56.285
  H      548.597      64.826     -54.851
  H      547.419      61.529     -55.022
  H      549.617      61.494     -53.115
  H      548.741      63.307     -51.853
  H      545.935      62.306     -52.567
  H      552.656      63.264     -58.066
  H      545.463      64.797     -52.540
  H      552.346      64.953     -57.794
  H      545.851      64.134     -50.966
  P      548.935      61.645     -49.762
  C      547.684      63.037     -47.996
  O      548.241      61.781     -48.317
  O      549.692      63.061     -49.886
  O      549.860      60.496     -49.957
  H      550.511      63.046     -49.349
  H      547.079      62.932     -47.095
  H      547.054      63.398     -48.807
  H      548.492      63.758     -47.796
  H      546.080      68.143     -55.127
  H      546.211      69.003     -53.612
  H      545.045      67.713     -53.787

 3  4  5  6  7  8  9  10  11  12  13  21  23  27  28  29  30  32 0
 6-311+G(2d,p)
 ****
 34  35 0
 6-311+G(2d,p)
 ****
 1  2  14  15  16  17  18  19  20  22  24  25  26 0
 3-21G
 ****
 31  33  36  37  38  39  40  41  42  43  44  45  46 0
 3-21G
 ****


