%nproc=1
%NoSave
%Mem=1900MB
#P OB98/GEN NMR

erre ene a

0 1
  C      -28.583    -132.290    -134.654
  O      -28.554    -133.402    -133.781
  H      -27.780    -132.401    -135.389
  H      -28.422    -131.361    -134.100
  H      -29.538    -132.247    -135.185
  P      -29.587    -133.440    -132.559
  C      -27.645    -133.183    -130.867
  O      -28.881    -132.664    -131.347
  C      -27.547    -133.022    -129.351
  O      -27.433    -131.628    -129.001
  C      -28.760    -133.544    -128.591
  O      -28.750    -134.956    -128.541
  C      -28.575    -132.840    -127.254
  O      -27.580    -133.502    -126.458
  C      -28.070    -131.449    -127.715
  N      -29.126    -130.444    -127.795
  C      -29.850    -130.217    -126.618
  O      -29.594    -130.858    -125.598
  N      -30.856    -129.283    -126.640
  C      -31.092    -128.605    -127.720
  N      -32.098    -127.691    -127.674
  C      -30.328    -128.789    -128.969
  C      -29.380    -129.723    -128.939
  O      -30.132    -134.787    -132.195
  O      -30.749    -132.434    -133.004
  H      -27.886    -134.425    -126.356
  H      -31.476    -132.920    -133.439
  H      -30.551    -128.195    -129.844
  H      -28.771    -129.922    -129.819
  H      -27.298    -131.076    -127.029
  H      -29.493    -132.818    -126.668
  H      -29.685    -133.174    -129.049
  H      -26.628    -133.522    -129.017
  H      -32.579    -127.586    -126.787
  H      -26.845    -132.616    -131.358
  H      -32.260    -127.001    -128.392
  H      -27.536    -134.239    -131.142
  P      -30.062    -135.793    -128.153
  C      -29.497    -136.253    -125.686
  O      -30.308    -135.517    -126.591
  O      -30.034    -137.233    -128.539
  O      -31.250    -134.970    -128.840
  H      -31.279    -135.153    -129.812
  H      -29.751    -135.986    -124.681
  H      -28.467    -136.027    -125.866
  H      -29.663    -137.300    -125.829

 6  7  8  9  10  11  12  13  14  15  16  26  30  31  32  33  35 0
 6-311+G(2d,p)
 ****
 37  38 0
 6-311+G(2d,p)
 ****
 1  2  3  4  5  17  18  19  20  21  22  23  24  25 0
 3-21G
 ****
 27  28  29  34  36  39  40  41  42  43  44  45  46 0
 3-21G
 ****


