%nproc=1
%NoSave
%Mem=1900MB
#P OB98/GEN NMR

erre ene a

0 1
  C      160.367     -12.024     109.456
  O      159.897     -12.154     108.133
  H      161.419     -11.725     109.423
  H      160.299     -12.979     109.982
  H      159.803     -11.258     109.993
  P      158.384     -12.627     107.881
  C      159.189     -14.150     105.978
  O      158.333     -13.072     106.333
  C      159.542     -14.104     104.490
  O      160.690     -13.234     104.291
  C      159.895     -15.477     103.896
  O      159.203     -15.658     102.658
  C      161.389     -15.380     103.635
  O      161.837     -16.271     102.618
  C      161.531     -13.887     103.323
  N      162.916     -13.440     103.400
  C      163.794     -13.989     102.459
  O      163.381     -14.794     101.623
  N      165.122     -13.654     102.519
  C      165.547     -12.880     103.470
  N      166.879     -12.611     103.490
  C      164.660     -12.301     104.500
  C      163.368     -12.617     104.405
  O      157.345     -11.637     108.287
  O      158.256     -14.023     108.651
  H      161.491     -17.169     102.817
  H      157.306     -14.197     108.843
  H      165.064     -11.665     105.273
  H      162.642     -12.242     105.117
  H      161.145     -13.656     102.322
  H      161.933     -15.621     104.559
  H      159.657     -16.306     104.561
  H      158.708     -13.640     103.949
  H      167.452     -13.034     102.768
  H      158.686     -15.092     106.222
  H      167.328     -12.043     104.192
  H      160.108     -14.070     106.565
  P      158.741     -17.158     102.318
  C      159.704     -17.059      99.910
  O      158.562     -17.272     100.728
  O      157.245     -17.219     102.882
  O      159.607     -18.202     102.940
  H      157.212     -17.796     103.670
  H      159.431     -17.167      98.881
  H      160.458     -17.777     100.156
  H      160.083     -16.072     100.076

 6  7  8  9  10  11  12  13  14  15  16  26  30  31  32  33  35 0
 6-311+G(2d,p)
 ****
 37  38 0
 6-311+G(2d,p)
 ****
 1  2  3  4  5  17  18  19  20  21  22  23  24  25 0
 3-21G
 ****
 27  28  29  34  36  39  40  41  42  43  44  45  46 0
 3-21G
 ****


