%nproc=1
%NoSave
%Mem=1900MB
#P OB98/GEN NMR

erre ene a

0 1
  C      751.208    -630.889     137.671
  O      750.348    -630.916     136.551
  H      751.542    -631.901     137.911
  H      752.093    -630.290     137.422
  H      750.718    -630.434     138.536
  P      748.910    -631.604     136.767
  C      749.967    -633.900     136.098
  O      749.213    -633.157     137.069
  C      750.282    -635.299     136.636
  O      749.031    -636.014     136.833
  C      751.149    -636.129     135.677
  O      752.088    -636.902     136.442
  C      750.148    -637.063     135.004
  O      750.749    -638.246     134.529
  C      749.122    -637.259     136.123
  N      746.009    -641.220     135.288
  C      747.202    -641.124     135.921
  N      747.967    -640.032     136.103
  C      747.350    -638.943     135.608
  C      746.130    -638.888     134.946
  C      745.447    -640.104     134.772
  N      744.261    -640.207     134.111
  N      745.877    -637.582     134.550
  C      746.898    -636.872     134.950
  N      747.837    -637.656     135.609
  O      748.308    -631.617     135.275
  O      748.001    -630.929     137.731
  H      751.119    -638.733     135.299
  H      747.963    -630.739     135.064
  H      747.592    -642.065     136.317
  H      747.045    -635.814     134.818
  H      749.448    -638.047     136.838
  H      749.680    -636.542     134.158
  H      751.692    -635.522     134.958
  H      750.761    -635.199     137.619
  H      750.899    -633.356     135.900
  H      743.866    -641.120     133.985
  H      743.862    -639.379     133.668
  H      749.391    -633.975     135.169
  P      753.636    -636.739     136.066
  C      754.131    -638.660     134.374
  O      753.846    -637.281     134.577
  O      754.339    -637.870     136.980
  O      754.188    -635.386     136.342
  H      755.101    -637.480     137.442
  H      754.241    -638.851     133.327
  H      753.328    -639.251     134.762
  H      755.038    -638.915     134.881

 6  7  8  9  10  11  12  13  14  15  25  28  32  33  34  35 0
 6-311+G(2d,p)
 ****
 36  39  40 0
 6-311+G(2d,p)
 ****
 1  2  3  4  5  16  17  18  19  20  21  22  23  24 0
 3-21G
 ****
 26  27  29  30  31  37  38  41  42  43  44  45  46  47 0
 3-21G
 ****
 48 0
 3-21G
 ****


