%nproc=1
%NoSave
%Mem=1900MB
#P OB98/GEN NMR

erre ene a

0 1
  C       72.308    -158.319     -52.064
  O       72.744    -158.214     -50.724
  H       72.456    -157.354     -52.555
  H       71.245    -158.573     -52.106
  H       72.894    -159.074     -52.596
  P       72.524    -159.471     -49.751
  C       69.974    -159.042     -49.578
  O       71.218    -159.083     -48.896
  C       68.847    -158.716     -48.601
  O       67.587    -158.577     -49.292
  C       68.591    -159.780     -47.539
  O       69.576    -159.807     -46.518
  C       67.235    -159.322     -47.027
  O       67.405    -158.176     -46.174
  C       66.534    -158.926     -48.350
  N       65.696    -159.994     -48.893
  C       64.328    -159.719     -49.014
  O       63.878    -158.627     -48.673
  N       63.493    -160.704     -49.483
  C       63.978    -161.868     -49.788
  N       63.101    -162.823     -50.203
  C       65.414    -162.194     -49.693
  C       66.207    -161.227     -49.239
  O       73.709    -159.902     -48.948
  O       71.951    -160.619     -50.708
  H       67.973    -158.454     -45.432
  H       71.808    -161.425     -50.154
  H       65.765    -163.183     -49.952
  H       67.272    -161.397     -49.125
  H       65.917    -158.031     -48.211
  H       66.711    -160.085     -46.447
  H       68.476    -160.768     -47.997
  H       69.074    -157.742     -48.149
  H       62.121    -162.576     -50.215
  H       69.813    -160.015     -50.052
  H       63.347    -163.807     -50.189
  H       69.994    -158.269     -50.352
  P       70.314    -161.203     -46.224
  C       68.312    -161.988     -44.751
  O       69.709    -161.761     -44.846
  O       71.794    -160.746     -45.830
  O       70.296    -162.194     -47.344
  H       72.386    -160.763     -46.607
  H       68.076    -162.357     -43.775
  H       68.017    -162.708     -45.485
  H       67.789    -161.070     -44.922

 6  7  8  9  10  11  12  13  14  15  16  26  30  31  32  33  35 0
 6-311+G(2d,p)
 ****
 37  38 0
 6-311+G(2d,p)
 ****
 1  2  3  4  5  17  18  19  20  21  22  23  24  25 0
 3-21G
 ****
 27  28  29  34  36  39  40  41  42  43  44  45  46 0
 3-21G
 ****


