%nproc=1
%NoSave
%Mem=1900MB
#P OB98/GEN NMR

erre ene a

0 1
  C      137.365    -437.830    -827.398
  O      136.804    -436.816    -826.589
  H      137.794    -438.619    -826.778
  H      136.570    -438.263    -828.014
  H      138.128    -437.414    -828.059
  P      137.809    -436.036    -825.610
  C      136.360    -437.000    -823.678
  O      137.668    -436.752    -824.183
  C      136.289    -438.404    -823.085
  O      136.807    -439.371    -824.033
  C      137.133    -438.595    -821.816
  O      136.456    -438.109    -820.663
  C      137.260    -440.107    -821.794
  O      136.026    -440.687    -821.319
  C      137.457    -440.428    -823.277
  N      141.613    -443.415    -823.550
  C      140.362    -443.648    -823.092
  N      139.314    -442.792    -823.053
  C      139.659    -441.599    -823.548
  C      140.887    -441.211    -824.041
  C      141.907    -442.188    -824.048
  N      143.180    -441.953    -824.500
  N      140.875    -439.884    -824.441
  C      139.638    -439.501    -824.217
  N      138.858    -440.487    -823.667
  O      137.098    -434.619    -825.382
  O      139.214    -435.897    -826.103
  H      135.947    -440.448    -820.379
  H      137.747    -433.960    -825.079
  H      140.183    -444.644    -822.703
  H      139.250    -438.502    -824.428
  H      136.997    -441.376    -823.572
  H      138.049    -440.454    -821.136
  H      138.133    -438.141    -821.920
  H      135.231    -438.647    -822.899
  H      135.639    -436.914    -824.498
  H      143.872    -442.655    -824.288
  H      143.456    -441.004    -824.729
  H      136.121    -436.252    -822.909
  P      137.139    -436.888    -819.873
  C      136.882    -438.225    -817.649
  O      137.754    -437.520    -818.540
  O      135.872    -436.053    -819.345
  O      138.067    -436.047    -820.690
  H      136.100    -435.109    -819.212
  H      137.442    -438.584    -816.811
  H      136.440    -439.053    -818.163
  H      136.112    -437.565    -817.307

 6  7  8  9  10  11  12  13  14  15  25  28  32  33  34  35 0
 6-311+G(2d,p)
 ****
 36  39  40 0
 6-311+G(2d,p)
 ****
 1  2  3  4  5  16  17  18  19  20  21  22  23  24 0
 3-21G
 ****
 26  27  29  30  31  37  38  41  42  43  44  45  46  47 0
 3-21G
 ****
 48 0
 3-21G
 ****


