%nproc=1
%NoSave
%Mem=1900MB
#P OB98/GEN NMR

erre ene a

0 1
  C     -421.488     119.003      91.162
  O     -421.574     120.005      92.157
  P     -421.264     119.662      93.692
  C     -421.947     117.770      95.376
  O     -422.049     118.333      94.089
  C     -423.352     117.373      95.867
  O     -424.064     116.687      94.813
  C     -423.288     116.454      97.075
  O     -423.388     117.196      98.279
  C     -424.457     115.514      96.848
  O     -425.684     116.133      97.279
  C     -424.436     115.368      95.306
  N     -423.503     114.381      94.705
  C     -423.493     113.076      95.178
  O     -424.254     112.656      96.046
  N     -422.554     112.247      94.615
  C     -421.683     112.602      93.618
  O     -420.694     111.934      93.296
  C     -421.923     113.898      92.994
  C     -422.787     114.732      93.574
  O     -422.047     120.814      94.490
  O     -419.815     119.620      94.057
  H     -426.405     115.521      97.060
  H     -421.439     121.529      94.746
  H     -422.448     111.331      95.039
  H     -421.341     114.158      92.110
  H     -422.958     115.714      93.142
  H     -425.436     115.135      94.918
  H     -424.350     114.606      97.430
  H     -422.352     115.872      97.059
  H     -423.906     118.295      96.114
  H     -421.487     118.481      96.068
  H     -421.297     116.884      95.351
  P     -422.863     116.563      99.653
  C     -423.117     114.260     100.751
  O     -423.627     115.154      99.791
  O     -422.942     117.457     100.854
  O     -421.351     116.158      99.320
  H     -420.729     116.851      99.640
  H     -423.818     113.429     100.867
  H     -422.993     114.761     101.718
  H     -422.151     113.864     100.406
  H     -421.730     119.425      90.209
  H     -422.176     118.216      91.388
  H     -420.493     118.610      91.136

 3  4  5  6  7  8  9  10  11  12  13  23  28  29  30  31  32 0
 6-311+G(2d,p)
 ****
 33  34 0
 6-311+G(2d,p)
 ****
 1  2  14  15  16  17  18  19  20  21  22  24  25  26  27 0
 3-21G
 ****
 35  36  37  38  39  40  41  42  43  44  45 0
 3-21G
 ****


