%nproc=1
%NoSave
%Mem=1900MB
#P OB98/GEN NMR

erre ene a

0 1
  C     -893.920    -897.880    -892.740
  O     -893.100    -898.300    -893.790
  H     -893.320    -897.420    -891.940
  H     -894.490    -898.710    -892.310
  H     -894.660    -897.100    -893.090
  P     -893.800    -898.690    -895.150
  C     -892.380    -897.030    -896.580
  O     -893.690    -897.400    -896.160
  C     -892.420    -895.650    -897.250
  O     -893.310    -895.690    -898.410
  C     -892.950    -894.520    -896.320
  O     -892.170    -893.300    -896.560
  C     -894.380    -894.330    -896.780
  O     -894.890    -893.020    -896.480
  C     -894.250    -894.640    -898.270
  N     -898.950    -893.010    -899.190
  C     -897.850    -892.340    -898.660
  N     -898.050    -891.050    -898.360
  N     -896.700    -892.890    -898.460
  C     -896.640    -894.160    -898.880
  C     -897.640    -894.980    -899.400
  C     -898.930    -894.360    -899.560
  O     -900.000    -894.910    -900.000
  N     -897.210    -896.260    -899.640
  C     -895.970    -896.270    -899.280
  N     -895.520    -895.010    -898.820
  O     -895.370    -898.730    -894.790
  O     -893.400    -900.000    -895.760
  H     -895.810    -892.970    -896.790
  H     -895.740    -899.610    -894.890
  H     -899.860    -892.540    -899.290
  H     -895.280    -897.140    -899.310
  H     -893.890    -893.760    -898.830
  H     -895.030    -895.020    -896.250
  H     -898.920    -890.540    -898.550
  H     -892.840    -894.790    -895.230
  H     -897.220    -890.500    -898.040
  H     -891.410    -895.370    -897.630
  H     -892.010    -897.750    -897.300
  H     -891.690    -897.000    -895.700
  P     -890.860    -893.070    -895.690
  C     -889.130    -891.830    -897.080
  O     -889.540    -893.090    -896.580
  O     -890.720    -894.490    -894.810
  O     -890.980    -891.930    -894.720
  H     -891.050    -894.350    -893.900
  H     -888.240    -891.950    -897.661
  H     -888.936    -891.168    -896.262
  H     -889.905    -891.421    -897.694

 6  7  8  9  10  11  12  13  14  15  26  29  33  34 0
 6-311+G(2d,p)
 ****
 36  38  39  40  41 0
 6-311+G(2d,p)
 ****
 1  2  3  4  5  16  17  18  19  20  21  22  23  24  25 0
 3-21G
 ****
 27  28  30  31  32  35  37  42  43  44  45  46  47 0
 3-21G
 ****
 48  49 0
 3-21G
 ****


