%nproc=1
%NoSave
%Mem=1900MB
#P OB98/GEN NMR

erre ene a

0 1
  C     -175.644     -41.567    -203.158
  O     -176.754     -40.861    -202.639
  H     -174.883     -40.865    -203.510
  H     -175.217     -42.181    -202.363
  H     -175.959     -42.219    -203.978
  P     -177.547     -39.916    -203.665
  C     -175.302     -38.874    -204.445
  O     -176.602     -38.644    -203.923
  C     -174.763     -37.599    -205.087
  O     -173.384     -37.780    -205.467
  C     -175.486     -37.172    -206.361
  O     -176.702     -36.497    -206.076
  C     -174.456     -36.233    -206.969
  O     -174.518     -34.953    -206.312
  C     -173.135     -36.939    -206.623
  N     -171.708     -36.990    -211.536
  C     -172.103     -35.988    -210.722
  N     -172.448     -36.048    -209.420
  C     -172.334     -37.304    -208.959
  C     -171.924     -38.425    -209.659
  C     -171.606     -38.238    -211.014
  N     -171.267     -39.286    -211.855
  N     -171.950     -39.545    -208.851
  C     -172.388     -39.107    -207.689
  N     -172.627     -37.762    -207.703
  O     -178.737     -39.332    -202.762
  O     -178.063     -40.598    -204.887
  H     -175.422     -34.614    -206.442
  H     -179.542     -39.859    -202.915
  H     -172.155     -35.005    -211.180
  H     -172.550     -39.727    -206.816
  H     -172.348     -36.229    -206.344
  H     -174.613     -36.057    -208.037
  H     -175.642     -38.019    -207.039
  H     -174.797     -36.802    -204.335
  H     -175.347     -39.667    -205.198
  H     -171.519     -39.124    -212.827
  H     -171.465     -40.205    -211.479
  H     -174.648     -39.194    -203.629
  P     -178.066     -37.329    -206.209
  C     -178.026     -36.960    -208.769
  O     -178.771     -36.835    -207.566
  O     -178.980     -36.702    -205.054
  O     -177.931     -38.805    -206.050
  H     -179.283     -37.409    -204.453
  H     -178.609     -36.597    -209.589
  H     -177.783     -37.989    -208.933
  H     -177.125     -36.388    -208.691

 6  7  8  9  10  11  12  13  14  15  25  28  32  33  34  35 0
 6-311+G(2d,p)
 ****
 36  39  40 0
 6-311+G(2d,p)
 ****
 1  2  3  4  5  16  17  18  19  20  21  22  23  24 0
 3-21G
 ****
 26  27  29  30  31  37  38  41  42  43  44  45  46  47  48 0
 3-21G
 ****


