%nproc=1
%NoSave
%Mem=1900MB
#P OB98/GEN NMR

erre ene a

0 1
  C     -215.571     118.207    -400.622
  O     -215.538     117.865    -401.993
  H     -214.543     118.361    -400.276
  H     -216.015     117.396    -400.039
  H     -216.133     119.133    -400.465
  P     -216.923     117.748    -402.790
  C     -216.296     115.388    -403.619
  O     -217.252     116.184    -402.928
  C     -216.109     114.053    -402.902
  O     -215.466     114.270    -401.625
  C     -217.419     113.334    -402.582
  O     -217.973     112.733    -403.733
  C     -216.958     112.369    -401.503
  O     -216.352     111.202    -402.076
  C     -215.907     113.210    -400.744
  N     -216.437     113.754    -399.493
  C     -216.424     112.898    -398.394
  O     -215.982     111.745    -398.433
  N     -216.988     113.389    -397.247
  C     -217.680     114.567    -397.140
  O     -218.378     114.851    -396.174
  C     -217.609     115.456    -398.310
  C     -217.012     115.008    -399.420
  O     -217.007     118.530    -404.062
  O     -218.014     118.253    -401.727
  H     -218.273     119.167    -401.940
  H     -216.278     110.553    -401.349
  H     -217.019     112.756    -396.457
  H     -218.080     116.428    -398.241
  H     -216.976     115.635    -400.309
  H     -215.024     112.600    -400.511
  H     -217.789     112.041    -400.879
  H     -218.134     114.046    -402.142
  H     -215.458     113.416    -403.513
  H     -215.340     115.924    -403.647
  H     -216.645     115.227    -404.647
  P     -219.322     113.319    -404.382
  C     -220.676     111.420    -403.292
  O     -220.562     112.830    -403.490
  O     -219.474     113.083    -405.847
  O     -219.251     114.889    -404.059
  H     -219.419     115.388    -404.886
  H     -221.533     111.213    -402.686
  H     -219.797     111.056    -402.802
  H     -220.783     110.934    -404.239

 6  7  8  9  10  11  12  13  14  15  16  27  31  32  33  34  35 0
 6-311+G(2d,p)
 ****
 36  37 0
 6-311+G(2d,p)
 ****
 1  2  3  4  5  17  18  19  20  21  22  23  24  25 0
 3-21G
 ****
 26  28  29  30  38  39  40  41  42  43  44  45 0
 3-21G
 ****


