%nproc=1
%NoSave
%Mem=1900MB
#P OB98/GEN NMR

erre ene a

0 1
  C      127.018     303.341      28.727
  O      127.215     304.330      27.732
  H      126.153     302.733      28.452
  H      126.831     303.816      29.694
  H      127.899     302.693      28.794
  P      128.472     305.303      27.934
  C      127.423     306.713      29.864
  O      128.420     305.781      29.467
  C      127.946     307.593      31.002
  O      126.859     308.451      31.464
  C      128.439     306.798      32.223
  O      129.483     307.548      32.869
  C      127.202     306.795      33.110
  O      127.543     306.447      34.431
  C      126.722     308.223      32.885
  N      123.679     308.862      36.925
  C      125.021     308.762      36.816
  N      125.758     308.602      35.695
  C      124.971     308.575      34.608
  C      123.587     308.664      34.565
  C      122.928     308.808      35.800
  N      121.562     308.888      35.920
  N      123.138     308.571      33.260
  C      124.226     308.432      32.530
  N      125.354     308.431      33.305
  O      128.055     306.616      27.114
  O      129.788     304.762      27.490
  H      128.251     307.026      34.778
  H      128.399     306.561      26.204
  H      125.575     308.815      37.747
  H      124.258     308.321      31.455
  H      127.346     308.963      33.406
  H      126.466     306.068      32.759
  H      128.803     305.798      31.972
  H      128.729     308.256      30.619
  H      126.538     306.158      30.197
  H      127.152     307.342      29.009
  H      121.167     308.961      36.844
  H      120.991     308.816      35.092
  P      131.001     307.039      32.741
  C      130.906     304.974      34.333
  O      131.090     305.463      33.011
  O      131.669     307.649      34.063
  O      131.733     307.515      31.526
  H      132.527     308.063      33.840
  H      130.997     303.908      34.335
  H      129.933     305.249      34.683
  H      131.649     305.397      34.976

 6  7  8  9  10  11  12  13  14  15  25  28  32  33  34  35 0
 6-311+G(2d,p)
 ****
 36  37  40 0
 6-311+G(2d,p)
 ****
 1  2  3  4  5  16  17  18  19  20  21  22  23  24 0
 3-21G
 ****
 26  27  29  30  31  38  39 41  42  43  44  45  46  47  48 0
 3-21G
 ****


