%nproc=1
%NoSave
%Mem=1900MB
#P OB98/GEN NMR

erre ene a

0 1
  C     -341.984      73.740    -223.205
  O     -342.775      73.274    -222.131
  H     -342.640      74.190    -223.956
  H     -341.444      72.909    -223.662
  H     -341.277      74.498    -222.854
  P     -341.999      72.569    -220.914
  C     -343.526      73.618    -219.094
  O     -343.075      72.425    -219.724
  C     -344.503      73.285    -217.964
  O     -345.799      72.960    -218.542
  C     -344.070      72.093    -217.100
  O     -344.423      72.359    -215.739
  C     -344.934      70.959    -217.621
  O     -345.091      69.919    -216.661
  C     -346.217      71.713    -217.956
  N     -350.582      69.229    -218.283
  C     -350.022      69.924    -217.230
  N     -350.733      69.969    -216.080
  N     -348.864      70.529    -217.295
  C     -348.277      70.429    -218.509
  C     -348.719      69.759    -219.628
  C     -349.992      69.076    -219.536
  O     -350.526      68.424    -220.425
  N     -347.812      69.862    -220.656
  C     -346.828      70.592    -220.160
  N     -347.067      70.962    -218.864
  O     -341.016      73.717    -220.382
  O     -341.271      71.315    -221.256
  H     -345.589      70.281    -215.904
  H     -340.204      73.330    -220.004
  H     -351.470      68.772    -218.177
  H     -345.930      70.878    -220.693
  H     -346.818      71.932    -217.064
  H     -344.482      70.528    -218.522
  H     -351.647      69.554    -215.966
  H     -343.002      71.870    -217.162
  H     -350.347      70.483    -215.294
  H     -344.646      74.183    -217.354
  H     -344.030      74.245    -219.839
  H     -342.665      74.159    -218.692
  P     -343.301      72.119    -214.619
  C     -343.806      74.273    -213.257
  O     -343.755      72.857    -213.263
  O     -342.083      73.018    -215.137
  O     -342.893      70.690    -214.464
  H     -341.370      72.447    -215.468
  H     -344.122      74.614    -212.294
  H     -344.500      74.608    -214.000
  H     -342.835      74.666    -213.473

 6  7  8  9  10  11  12  13  14  15  26  29  33  34 0
 6-311+G(2d,p)
 ****
 36  38  39  40  41 0
 6-311+G(2d,p)
 ****
 1  2  3  4  5  16  17  18  19  20  21  22  23  24  25 0
 3-21G
 ****
 27  28  30  31  32  35  37  42  43  44  45  46  47 0
 3-21G
 ****
 48  49 0
 3-21G
 ****


