%nproc=1
%NoSave
%Mem=1900MB
#P OB98/GEN NMR

erre ene a

0 1
  C      151.823    -286.006    -302.827
  O      152.565    -286.120    -301.605
  P      152.971    -284.861    -300.696
  C      155.037    -283.397    -300.216
  O      154.496    -284.458    -300.994
  C      155.521    -282.238    -301.099
  O      156.714    -282.637    -301.842
  C      154.486    -281.746    -302.134
  O      154.617    -280.322    -302.193
  C      154.978    -282.411    -303.411
  O      154.472    -281.813    -304.590
  C      156.491    -282.262    -303.217
  N      157.319    -283.061    -304.114
  C      158.340    -282.406    -304.814
  O      158.506    -281.191    -304.722
  N      159.160    -283.153    -305.628
  C      158.973    -284.427    -305.748
  N      159.825    -285.108    -306.559
  C      157.899    -285.152    -305.048
  C      157.122    -284.417    -304.257
  O      152.680    -285.055    -299.241
  O      152.127    -283.629    -301.278
  H      151.864    -283.047    -300.538
  H      154.672    -280.858    -304.551
  H      157.782    -286.221    -305.168
  H      156.324    -284.883    -303.685
  H      156.767    -281.201    -303.309
  H      154.664    -283.459    -303.404
  H      153.456    -281.994    -301.866
  H      155.825    -281.416    -300.443
  H      160.559    -284.574    -307.018
  H      155.884    -283.781    -299.644
  H      159.777    -286.103    -306.719
  H      154.276    -283.047    -299.514
  P      153.352    -279.395    -301.870
  C      151.487    -278.224    -303.265
  O      152.639    -279.040    -303.265
  O      154.051    -277.997    -301.500
  O      152.471    -279.838    -300.751
  H      153.463    -277.487    -300.915
  H      151.580    -277.488    -304.069
  H      151.352    -277.695    -302.319
  H      150.608    -278.845    -303.456
  H      151.677    -286.979    -303.248
  H      152.366    -285.396    -303.518
  H      150.872    -285.558    -302.626

 3  4  5  6  7  8  9  10  11  12  13  24  27  28  29  30  32 0
 6-311+G(2d,p)
 ****
 34  35 0
 6-311+G(2d,p)
 ****
 1  2  14  15  16  17  18  19  20  21  22  23  25  26 0
 3-21G
 ****
 31  33  36  37  38  39  40  41  42  43  44  45  46 0
 3-21G
 ****


