%nproc=1
%NoSave
%Mem=1900MB
#P OB98/GEN NMR

erre ene a

0 1
  C      297.466     -90.959    -158.841
  O      297.798     -92.109    -158.088
  H      298.332     -90.291    -158.856
  H      296.629     -90.432    -158.375
  H      297.214     -91.227    -159.870
  P      296.732     -93.302    -157.989
  C      295.909     -92.566    -155.667
  O      295.555     -92.790    -157.023
  C      294.932     -91.594    -155.008
  O      293.656     -92.261    -154.837
  C      295.392     -91.095    -153.634
  O      295.018     -89.727    -153.500
  C      294.586     -91.942    -152.667
  O      294.389     -91.292    -151.412
  C      293.291     -92.164    -153.447
  N      291.494     -94.628    -149.420
  C      292.068     -93.376    -149.517
  N      292.207     -92.681    -148.367
  N      292.471     -92.848    -150.643
  C      292.257     -93.649    -151.718
  C      291.702     -94.905    -151.752
  C      291.270     -95.483    -150.495
  O      290.770     -96.592    -150.347
  N      291.681     -95.404    -153.030
  C      292.227     -94.451    -153.765
  N      292.601     -93.369    -153.012
  O      297.296     -94.637    -157.620
  O      296.041     -93.325    -159.430
  H      293.850     -90.489    -151.585
  H      296.418     -94.036    -159.982
  H      291.208     -94.989    -148.527
  H      292.377     -94.495    -154.836
  H      292.585     -91.333    -153.329
  H      295.104     -92.893    -152.484
  H      291.904     -93.016    -147.466
  H      296.469     -91.207    -153.479
  H      292.604     -91.749    -148.417
  H      294.765     -90.754    -155.694
  H      296.922     -92.148    -155.641
  H      295.909     -93.521    -155.128
  P      296.171     -88.614    -153.431
  C      295.884     -88.398    -150.882
  O      296.793     -88.627    -151.954
  O      295.802     -87.266    -153.958
  O      297.348     -89.271    -154.305
  H      297.867     -88.556    -154.723
  H      296.413     -88.430    -149.953
  H      295.127     -89.155    -150.888
  H      295.428     -87.437    -151.000

 6  7  8  9  10  11  12  13  14  15  26  29  33  34 0
 6-311+G(2d,p)
 ****
 36  38  39  40  41 0
 6-311+G(2d,p)
 ****
 1  2  3  4  5  16  17  18  19  20  21  22  23  24  25 0
 3-21G
 ****
 27  28  30  31  32  35  37  42  43  44  45  46  47 0
 3-21G
 ****
 48  49 0
 3-21G
 ****


