%nproc=1
%NoSave
%Mem=1900MB
#P OB98/GEN NMR

erre ene a

0 1
  C     -126.320     364.140     570.256
  O     -126.893     363.882     568.988
  H     -126.790     363.509     571.013
  H     -125.252     363.912     570.218
  H     -126.447     365.195     570.519
  P     -128.472     364.120     568.841
  C     -128.172     365.969     567.048
  O     -128.723     364.702     567.361
  C     -127.906     366.068     565.546
  O     -126.768     365.233     565.226
  C     -129.087     365.633     564.655
  O     -129.479     366.699     563.791
  C     -128.523     364.497     563.811
  O     -128.963     364.537     562.456
  C     -127.015     364.692     563.922
  N     -124.920     361.615     560.437
  C     -125.200     362.934     560.403
  N     -125.662     363.722     561.407
  C     -125.805     363.006     562.543
  C     -125.527     361.666     562.734
  C     -125.078     360.947     561.610
  N     -124.842     359.591     561.618
  N     -125.800     361.290     564.038
  C     -126.269     362.385     564.605
  N     -126.312     363.436     563.742
  O     -128.743     365.385     569.795
  O     -129.322     362.954     569.220
  H     -128.886     365.466     562.162
  H     -129.509     365.202     570.366
  H     -125.051     363.426     559.450
  H     -126.642     362.448     565.623
  H     -126.642     365.408     563.178
  H     -128.831     363.537     564.247
  H     -129.947     365.294     565.246
  H     -127.623     367.104     565.314
  H     -127.222     366.103     567.582
  H     -124.643     359.140     560.746
  H     -125.075     359.074     562.464
  H     -128.863     366.752     567.375
  P     -130.916     366.557     563.075
  C     -131.770     368.871     563.915
  O     -131.454     368.050     562.804
  O     -131.853     366.041     564.260
  O     -130.930     365.635     561.904
  H     -132.604     365.529     563.901
  H     -132.111     369.824     563.569
  H     -130.898     369.003     564.521
  H     -132.540     368.406     564.495

 6  7  8  9  10  11  12  13  14  15  25  28  32  33  34  35 0
 6-311+G(2d,p)
 ****
 36  39  40 0
 6-311+G(2d,p)
 ****
 1  2  3  4  5  16  17  18  19  20  21  22  23  24 0
 3-21G
 ****
 26  27  29  30  31  37  38  41  42  43  44  45  46  47  48 0
 3-21G
 ****


