%nproc=1
%NoSave
%Mem=1900MB
#P OB98/GEN NMR

erre ene a

0 1
  C     -206.583      81.914    -117.393
  O     -205.763      80.820    -117.769
  P     -205.902      80.153    -119.219
  C     -206.503      77.917    -118.100
  O     -205.647      78.579    -119.024
  C     -205.904      76.575    -117.678
  O     -205.788      75.726    -118.846
  C     -204.515      76.700    -117.062
  O     -204.382      75.726    -116.024
  C     -203.570      76.325    -118.191
  O     -202.324      75.814    -117.680
  C     -204.413      75.313    -118.970
  N     -202.257      72.529    -122.706
  C     -202.475      72.264    -121.399
  N     -203.031      73.058    -120.458
  C     -203.429      74.221    -120.999
  C     -203.275      74.633    -122.316
  C     -202.655      73.728    -123.193
  N     -202.445      73.997    -124.528
  N     -203.782      75.908    -122.489
  C     -204.246      76.247    -121.308
  N     -204.066      75.257    -120.375
  O     -205.082      80.788    -120.287
  O     -207.464      80.228    -119.546
  H     -201.832      75.443    -118.441
  H     -207.605      80.427    -120.492
  H     -202.159      71.279    -121.063
  H     -204.709      77.194    -121.070
  H     -204.324      74.304    -118.549
  H     -203.345      77.213    -118.793
  H     -204.312      77.701    -116.665
  H     -206.596      76.087    -116.983
  H     -207.467      77.741    -118.589
  H     -202.105      73.244    -125.104
  H     -202.895      74.811    -124.927
  H     -206.667      78.560    -117.230
  P     -203.533      76.187    -114.732
  C     -201.855      74.216    -115.012
  O     -202.827      74.847    -114.210
  O     -204.369      76.944    -113.754
  O     -202.364      77.041    -115.418
  H     -202.211      76.762    -116.347
  H     -201.521      73.305    -114.507
  H     -200.991      74.874    -115.145
  H     -202.273      73.948    -115.985
  H     -206.341      82.215    -116.395
  H     -207.611      81.621    -117.437
  H     -206.416      82.732    -118.063

 3  4  5  6  7  8  9  10  11  12  22  25  29  30  31  32 0
 6-311+G(2d,p)
 ****
 33  36  37 0
 6-311+G(2d,p)
 ****
 1  2  13  14  15  16  17  18  19  20  21  23  24  26 0
 3-21G
 ****
 27  28  34  35  38  39  40  41  42  43  44  45  46  47  48 0
 3-21G
 ****


