%nproc=1
%NoSave
%Mem=1900MB
#P OB98/GEN NMR

erre ene a

0 1
  C     -189.759       5.390    -336.975
  O     -190.900       6.103    -337.411
  H     -188.996       6.094    -336.622
  H     -190.047       4.735    -336.147
  H     -189.352       4.780    -337.785
  P     -190.733       6.993    -338.735
  C     -189.426       8.956    -337.634
  O     -189.385       7.845    -338.522
  C     -188.120       9.748    -337.714
  O     -188.324      11.052    -337.110
  C     -186.948       9.077    -336.989
  O     -185.754       9.280    -337.747
  C     -186.859       9.843    -335.679
  O     -185.556       9.789    -335.105
  C     -187.294      11.239    -336.113
  N     -185.990      14.309    -332.240
  C     -185.267      13.770    -333.251
  N     -185.700      12.962    -334.245
  C     -187.025      12.776    -334.163
  C     -187.896      13.251    -333.191
  C     -187.321      14.052    -332.190
  N     -188.034      14.579    -331.137
  N     -189.184      12.810    -333.426
  C     -189.092      12.066    -334.520
  N     -187.810      12.013    -334.996
  O     -191.900       8.089    -338.562
  O     -190.841       6.265    -340.027
  H     -185.553      10.351    -334.299
  H     -192.755       7.693    -338.826
  H     -184.209      14.009    -333.256
  H     -189.919      11.553    -334.993
  H     -186.478      11.815    -336.556
  H     -187.570       9.419    -334.950
  H     -187.102       8.007    -336.826
  H     -187.880       9.924    -338.772
  H     -189.572       8.592    -336.612
  H     -187.537      15.088    -330.423
  H     -189.022      14.349    -331.045
  H     -190.271       9.605    -337.907
  P     -184.952       7.958    -338.188
  C     -183.719       7.688    -335.928
  O     -184.597       7.106    -336.877
  O     -183.531       8.531    -338.670
  O     -185.626       7.188    -339.286
  H     -183.306       8.168    -339.546
  H     -183.575       7.010    -335.113
  H     -184.142       8.600    -335.563
  H     -182.777       7.893    -336.392

 6  7  8  9  10  11  12  13  14  15  25  28  32  33  34  35 0
 6-311+G(2d,p)
 ****
 36  39  40 0
 6-311+G(2d,p)
 ****
 1  2  3  4  5  16  17  18  19  20  21  22  23  24 0
 3-21G
 ****
 26  27  29  30  31  37  38  41  42  43  44  45  46  47 0
 3-21G
 ****
 48 0
 3-21G
 ****


