%nproc=1
%NoSave
%Mem=1900MB
#P OB98/GEN NMR

erre ene a

0 1
  C      119.051    -296.606    -126.733
  O      119.759    -296.189    -125.561
  P      120.812    -297.190    -124.882
  C      120.807    -299.181    -123.256
  O      120.029    -298.175    -123.887
  C      120.060    -300.523    -123.147
  O      118.848    -300.369    -122.361
  C      119.657    -301.131    -124.498
  O      119.778    -302.553    -124.364
  C      118.202    -300.724    -124.618
  O      117.495    -301.510    -125.562
  C      117.752    -300.868    -123.155
  N      116.516    -300.159    -122.878
  C      115.339    -300.700    -123.396
  O      115.380    -301.680    -124.138
  N      114.143    -300.102    -123.076
  C      114.142    -298.973    -122.430
  N      112.942    -298.418    -122.121
  C      115.382    -298.272    -122.034
  C      116.520    -298.926    -122.260
  O      122.027    -296.545    -124.307
  O      121.205    -298.164    -126.102
  H      117.308    -302.390    -125.172
  H      122.145    -298.415    -126.011
  H      115.342    -297.294    -121.578
  H      117.475    -298.507    -121.994
  H      117.613    -301.934    -122.901
  H      118.141    -299.673    -124.934
  H      120.284    -300.800    -125.334
  H      120.713    -301.223    -122.605
  H      112.095    -298.890    -122.424
  H      121.091    -298.843    -122.254
  H      112.860    -297.559    -121.574
  H      121.753    -299.299    -123.812
  P      120.895    -303.328    -125.218
  C      120.927    -304.877    -127.314
  O      120.153    -304.168    -126.363
  O      121.338    -304.491    -124.202
  O      122.091    -302.518    -125.622
  H      122.253    -304.770    -124.416
  H      120.281    -305.592    -127.830
  H      121.740    -305.422    -126.826
  H      121.345    -304.179    -128.051
  H      118.395    -295.823    -127.051
  H      118.479    -297.482    -126.511
  H      119.750    -296.825    -127.513

 3  4  5  6  7  8  9  10  11  12  13  23  27  28  29  30  32 0
 6-311+G(2d,p)
 ****
 34  35 0
 6-311+G(2d,p)
 ****
 1  2  14  15  16  17  18  19  20  21  22  24  25  26 0
 3-21G
 ****
 31  33  36  37  38  39  40  41  42  43  44  45  46 0
 3-21G
 ****


