%nproc=1
%NoSave
%Mem=1900MB
#P OB98/GEN NMR

erre ene a

0 1
  C     -396.520    -964.591    -245.587
  O     -397.115    -963.513    -244.856
  P     -397.121    -963.465    -243.260
  C     -396.306    -961.129    -242.561
  O     -395.954    -962.500    -242.749
  C     -396.028    -960.283    -243.820
  O     -396.824    -960.743    -244.929
  C     -396.322    -958.799    -243.655
  O     -395.292    -958.144    -242.956
  C     -396.477    -958.376    -245.126
  O     -395.185    -958.146    -245.716
  C     -397.158    -959.601    -245.743
  N     -401.046    -958.830    -248.966
  C     -399.716    -958.954    -249.170
  N     -398.739    -959.144    -248.257
  C     -399.258    -959.247    -247.027
  C     -400.603    -959.151    -246.653
  C     -401.521    -958.915    -247.702
  N     -402.885    -958.785    -247.489
  N     -400.748    -959.263    -245.300
  C     -399.532    -959.465    -244.837
  N     -398.604    -959.469    -245.852
  O     -397.132    -964.806    -242.602
  O     -398.467    -962.663    -242.880
  H     -394.649    -958.953    -245.587
  H     -398.791    -962.950    -242.005
  H     -399.400    -958.877    -250.201
  H     -399.273    -959.627    -243.803
  H     -396.774    -959.807    -246.747
  H     -397.041    -957.446    -245.234
  H     -397.274    -958.658    -243.155
  H     -394.962    -960.440    -244.075
  H     -395.728    -960.730    -241.719
  H     -403.463    -958.589    -248.277
  H     -403.232    -958.805    -246.533
  H     -397.383    -961.082    -242.306
  P     -394.981    -958.538    -241.425
  C     -392.444    -958.165    -241.201
  O     -393.470    -959.113    -241.382
  O     -396.012    -959.392    -240.767
  O     -394.816    -957.125    -240.711
  H     -395.084    -957.207    -239.756
  H     -392.226    -957.678    -242.161
  H     -391.543    -958.675    -240.863
  H     -392.727    -957.411    -240.465
  H     -396.632    -964.415    -246.636
  H     -397.003    -965.509    -245.325
  H     -395.480    -964.654    -245.345

 3  4  5  6  7  8  9  10  11  12  22  25  29  30  31  32 0
 6-311+G(2d,p)
 ****
 33  36  37 0
 6-311+G(2d,p)
 ****
 1  2  13  14  15  16  17  18  19  20  21  23  24  26 0
 3-21G
 ****
 27  28  34  35  38  39  40  41  42  43  44  45  46  47  48 0
 3-21G
 ****


