%nproc=1
%NoSave
%Mem=1900MB
#P OB98/GEN NMR

erre ene a

0 1
  C      401.267     633.974    -892.490
  O      401.031     635.354    -892.760
  P      401.589     635.952    -894.130
  C      403.954     636.218    -895.200
  O      403.172     635.992    -894.030
  C      405.182     635.304    -895.210
  O      404.785     633.922    -895.010
  C      405.965     635.337    -896.500
  O      406.790     636.487    -896.600
  C      406.769     634.043    -896.430
  O      407.955     634.202    -895.650
  C      405.773     633.103    -895.700
  N      405.120     632.159    -896.620
  C      405.958     631.278    -897.290
  O      407.178     631.296    -897.160
  N      405.361     630.396    -898.160
  C      404.033     630.348    -898.440
  O      403.564     629.590    -899.270
  C      403.177     631.316    -897.710
  C      403.759     632.166    -896.870
  O      401.157     637.490    -894.070
  O      401.066     635.264    -895.370
  H      407.688     634.671    -894.830
  H      400.933     637.807    -894.970
  H      405.955     629.753    -898.650
  H      402.106     631.313    -897.940
  H      403.153     632.887    -896.350
  H      406.280     632.525    -894.930
  H      407.079     633.676    -897.410
  H      405.290     635.278    -897.370
  H      405.833     635.596    -894.360
  H      404.273     637.272    -895.220
  H      403.340     636.009    -896.070
  P      407.545     636.737    -898.000
  C      409.344     635.263    -899.160
  O      408.836     635.805    -897.960
  O      408.081     638.246    -897.780
  O      406.624     636.572    -899.180
  H      408.307     638.415    -896.850
  H      409.226     635.937    -900.000
  H      408.831     634.323    -899.370
  H      410.412     635.027    -899.000
  H      400.839     633.717    -891.544
  H      402.321     633.790    -892.466
  H      400.819     633.379    -893.258

 3  4  5  6  7  8  9  10  11  12  13  23  28  29  30  31  32 0
 6-311+G(2d,p)
 ****
 33  34 0
 6-311+G(2d,p)
 ****
 1  2  14  15  16  17  18  19  20  21  22  24  25  26 0
 3-21G
 ****
 27  35  36  37  38  39  40  41  42  43  44  45 0
 3-21G
 ****


