%nproc=1
%NoSave
%Mem=1900MB
#P OB98/GEN NMR

erre ene a

0 1
  C     -189.292       3.670      45.552
  O     -190.631       4.124      45.642
  P     -191.813       3.090      45.316
  C     -191.458       2.963      42.714
  O     -192.265       3.375      43.803
  C     -191.563       3.966      41.564
  O     -190.626       3.584      40.517
  C     -192.954       4.058      40.922
  O     -193.155       5.425      40.535
  C     -192.817       3.171      39.696
  O     -193.780       3.469      38.694
  C     -191.371       3.467      39.289
  N     -190.786       2.437      38.431
  C     -189.671       2.776      37.670
  O     -189.165       3.900      37.661
  N     -189.162       1.779      36.880
  C     -189.684       0.528      36.725
  O     -189.195      -0.322      35.991
  C     -190.888       0.239      37.519
  C     -191.368       1.186      38.329
  O     -193.003       3.693      46.198
  O     -191.467       1.670      45.608
  H     -192.992       4.665      46.237
  H     -193.748       2.757      38.025
  H     -188.331       1.993      36.348
  H     -191.342      -0.742      37.415
  H     -192.256       0.998      38.919
  H     -191.314       4.440      38.784
  H     -192.945       2.121      39.989
  H     -193.750       3.743      41.602
  H     -191.247       4.951      41.934
  H     -191.797       1.983      42.364
  H     -190.420       2.860      43.052
  P     -194.495       6.165      41.035
  C     -195.988       4.954      39.256
  O     -195.526       6.168      39.810
  O     -193.979       7.686      41.070
  O     -195.017       5.698      42.354
  H     -193.514       7.946      40.258
  H     -196.903       5.150      38.690
  H     -196.209       4.220      40.032
  H     -195.232       4.552      38.576
  H     -188.627       4.471      45.797
  H     -189.095       3.335      44.555
  H     -189.143       2.861      46.236

 3  4  5  6  7  8  9  10  11  12  13  24  28  29  30  31  32 0
 6-311+G(2d,p)
 ****
 33  34 0
 6-311+G(2d,p)
 ****
 1  2  14  15  16  17  18  19  20  21  22  23  25  26  27 0
 3-21G
 ****
 35  36  37  38  39  40  41  42  43  44  45 0
 3-21G
 ****


