%nproc=1
%NoSave
%Mem=1900MB
#P OB98/GEN NMR

erre ene a

0 1
  C     -496.567     -83.425     397.400
  O     -497.829     -83.974     397.094
  H     -496.102     -83.072     396.474
  H     -495.921     -84.190     397.842
  H     -496.666     -82.579     398.087
  P     -498.761     -84.411     398.329
  C     -499.320     -86.753     397.342
  O     -499.810     -85.479     397.748
  C     -500.372     -87.490     396.511
  O     -500.100     -87.267     395.102
  C     -500.396     -89.000     396.756
  O     -501.759     -89.445     396.726
  C     -499.652     -89.566     395.556
  O     -500.022     -90.918     395.268
  C     -500.008     -88.552     394.462
  N     -499.015     -88.554     393.388
  C     -499.425     -89.085     392.162
  O     -500.561     -89.535     392.028
  N     -498.517     -89.161     391.135
  C     -497.285     -88.807     391.342
  N     -496.426     -88.929     390.291
  C     -496.791     -88.300     392.642
  C     -497.705     -88.203     393.603
  O     -499.664     -83.116     398.586
  O     -498.034     -84.857     399.550
  H     -500.971     -91.029     395.491
  H     -499.892     -83.033     399.535
  H     -495.753     -88.050     392.771
  H     -497.437     -87.844     394.595
  H     -500.994     -88.780     394.032
  H     -498.574     -89.553     395.753
  H     -499.940     -89.289     397.703
  H     -501.355     -87.041     396.723
  H     -496.796     -89.291     389.427
  H     -499.086     -87.344     398.229
  H     -495.434     -88.729     390.352
  H     -498.403     -86.616     396.761
  P     -502.237     -90.357     397.954
  C     -503.129     -92.457     396.703
  O     -503.449     -91.284     397.442
  O     -502.951     -89.311     398.936
  O     -501.125     -91.093     398.631
  H     -502.396     -89.172     399.723
  H     -504.031     -92.966     396.434
  H     -502.521     -93.102     397.303
  H     -502.594     -92.185     395.817

 6  7  8  9  10  11  12  13  14  15  16  26  30  31  32  33  35 0
 6-311+G(2d,p)
 ****
 37  38 0
 6-311+G(2d,p)
 ****
 1  2  3  4  5  17  18  19  20  21  22  23  24  25 0
 3-21G
 ****
 27  28  29  34  36  39  40  41  42  43  44  45  46 0
 3-21G
 ****


