%nproc=1
%NoSave
%Mem=1900MB
#P OB98/GEN NMR

erre ene a

0 1
  C     -179.227     -15.238      32.044
  O     -180.273     -14.837      32.914
  P     -181.787     -15.280      32.629
  C     -181.666     -17.245      34.283
  O     -181.866     -16.856      32.930
  C     -182.508     -18.473      34.620
  O     -182.295     -18.818      36.010
  C     -184.004     -18.255      34.427
  O     -184.591     -19.468      33.948
  C     -184.530     -17.991      35.827
  O     -185.919     -18.348      35.938
  C     -183.574     -18.839      36.672
  N     -185.841     -18.020      41.204
  C     -186.289     -18.596      40.067
  N     -185.642     -18.757      38.893
  C     -184.383     -18.299      38.982
  C     -183.784     -17.691      40.076
  C     -184.572     -17.552      41.230
  N     -184.108     -16.975      42.393
  N     -182.485     -17.324      39.778
  C     -182.301     -17.721      38.540
  N     -183.414     -18.326      38.018
  O     -182.324     -14.875      31.301
  O     -182.625     -14.641      33.830
  H     -186.016     -19.244      35.553
  H     -183.489     -14.321      33.508
  H     -187.307     -18.975      40.104
  H     -181.392     -17.588      37.973
  H     -183.907     -19.882      36.735
  H     -184.437     -16.926      36.060
  H     -184.229     -17.433      33.738
  H     -182.156     -19.317      34.014
  H     -181.968     -16.414      34.929
  H     -184.702     -17.030      43.205
  H     -183.118     -16.787      42.468
  H     -180.603     -17.446      34.451
  P     -185.622     -19.313      32.720
  C     -183.814     -20.123      31.031
  O     -184.694     -19.098      31.434
  O     -186.666     -18.280      32.990
  O     -186.178     -20.810      32.593
  H     -185.537     -21.465      32.946
  H     -183.244     -19.776      30.166
  H     -184.381     -21.012      30.737
  H     -183.121     -20.373      31.837
  H     -178.297     -14.846      32.400
  H     -179.418     -14.864      31.060
  H     -179.176     -16.306      32.016

 3  4  5  6  7  8  9  10  11  12  22  25  29  30  31  32 0
 6-311+G(2d,p)
 ****
 33  36  37 0
 6-311+G(2d,p)
 ****
 1  2  13  14  15  16  17  18  19  20  21  23  24  26 0
 3-21G
 ****
 27  28  34  35  38  39  40  41  42  43  44  45  46  47  48 0
 3-21G
 ****


