%nproc=1
%NoSave
%Mem=1900MB
#P OB98/GEN NMR

erre ene a

0 1
  C      162.516     199.839    -202.605
  O      163.929     199.883    -202.485
  P      164.622     201.302    -202.220
  C      165.436     202.019    -204.583
  O      165.788     201.495    -203.309
  C      166.177     201.278    -205.699
  O      167.606     201.517    -205.579
  C      165.966     199.757    -205.675
  O      165.973     199.256    -207.021
  C      167.216     199.240    -204.994
  O      167.474     197.879    -205.338
  C      168.258     200.234    -205.513
  N      173.307     199.937    -205.450
  C      172.452     200.098    -206.522
  N      173.018     200.092    -207.751
  N      171.161     200.260    -206.403
  C      170.733     200.234    -205.115
  C      171.486     200.097    -203.969
  C      172.912     199.907    -204.120
  O      173.723     199.733    -203.211
  N      170.705     200.159    -202.843
  C      169.474     200.292    -203.302
  N      169.436     200.305    -204.674
  O      165.426     201.060    -200.855
  O      163.674     202.448    -202.086
  H      166.763     197.344    -204.937
  H      164.958     201.498    -200.115
  H      174.296     199.805    -205.593
  H      168.582     200.355    -202.691
  H      168.586     199.977    -206.529
  H      167.106     199.309    -203.905
  H      173.996     199.904    -207.916
  H      165.050     199.434    -205.170
  H      172.409     200.164    -208.555
  H      165.864     201.696    -206.664
  H      165.699     203.077    -204.618
  H      164.354     201.932    -204.727
  P      165.093     197.938    -207.281
  C      167.050     196.234    -207.521
  O      166.011     196.960    -208.158
  O      163.976     198.438    -208.317
  O      164.495     197.344    -206.050
  H      163.177     197.885    -208.250
  H      166.840     195.168    -207.612
  H      167.150     196.494    -206.461
  H      167.999     196.456    -208.023
  H      162.204     198.830    -202.779
  H      162.208     200.454    -203.425
  H      162.070     200.200    -201.702

 3  4  5  6  7  8  9  10  11  12  23  26  30  31 0
 6-311+G(2d,p)
 ****
 33  35  36  37  38 0
 6-311+G(2d,p)
 ****
 1  2  13  14  15  16  17  18  19  20  21  22  24  25 0
 3-21G
 ****
 27  28  29  32  34  39  40  41  42  43  44  45  46  47  48  49 0
 3-21G
 ****


