%nproc=1
%NoSave
%Mem=1900MB
#P OB98/GEN NMR

erre ene a

0 1
  C      168.404      64.316     -56.206
  O      167.160      64.247     -56.873
  H      168.864      65.289     -56.388
  H      168.234      64.203     -55.132
  H      169.071      63.518     -56.542
  P      167.192      64.087     -58.468
  C      167.115      61.945     -59.933
  O      166.617      62.620     -58.787
  C      166.371      60.628     -60.142
  O      166.655      59.752     -59.015
  C      164.845      60.773     -60.250
  O      164.370      59.854     -61.238
  C      164.356      60.326     -58.884
  O      163.020      59.835     -58.911
  C      165.392      59.265     -58.529
  N      162.891      57.105     -54.666
  C      162.791      56.952     -56.003
  N      163.537      57.530     -56.966
  C      164.510      58.283     -56.424
  C      164.743      58.528     -55.083
  C      163.864      57.911     -54.177
  N      163.914      58.113     -52.817
  N      165.802      59.402     -54.929
  C      166.183      59.697     -56.157
  N      165.431      59.046     -57.094
  O      168.760      63.949     -58.769
  O      166.571      65.201     -59.240
  H      162.988      59.038     -59.476
  H      169.149      64.835     -58.884
  H      162.001      56.289     -56.346
  H      166.968      60.391     -56.421
  H      165.188      58.298     -59.005
  H      164.399      61.170     -58.185
  H      164.514      61.788     -60.500
  H      166.775      60.139     -61.036
  H      168.179      61.732     -59.788
  H      163.177      57.714     -52.256
  H      164.561      58.794     -52.448
  H      167.001      62.590     -60.810
  P      163.828      60.467     -62.617
  C      164.751      60.752     -65.035
  O      165.041      60.531     -63.659
  O      163.568      62.005     -62.257
  O      162.589      59.804     -63.127
  H      162.813      62.349     -62.768
  H      165.663      60.767     -65.594
  H      164.248      61.690     -65.147
  H      164.124      59.965     -65.398

 6  7  8  9  10  11  12  13  14  15  25  28  32  33  34  35 0
 6-311+G(2d,p)
 ****
 36  39  40 0
 6-311+G(2d,p)
 ****
 1  2  3  4  5  16  17  18  19  20  21  22  23  24 0
 3-21G
 ****
 26  27  29  30  31  37  38  41  42  43  44  45  46  47 0
 3-21G
 ****
 48 0
 3-21G
 ****


