%nproc=1
%NoSave
%Mem=1900MB
#P OB98/GEN NMR

erre ene a

0 1
  C      -10.202     -28.739     -81.139
  O       -9.786     -27.416     -80.883
  H      -10.569     -29.176     -80.206
  H       -9.353     -29.328     -81.493
  H      -11.005     -28.770     -81.880
  P       -9.639     -26.405     -82.113
  C       -9.315     -23.863     -82.418
  O       -9.719     -24.906     -81.541
  C       -8.710     -22.685     -81.655
  O       -9.765     -21.888     -81.075
  C       -7.810     -23.134     -80.500
  O       -6.463     -23.381     -80.867
  C       -7.909     -21.948     -79.544
  O       -6.919     -20.950     -79.845
  C       -9.317     -21.402     -79.801
  N      -10.993     -20.635     -75.033
  C       -9.848     -20.149     -75.638
  N       -9.041     -19.398     -74.859
  N       -9.532     -20.396     -76.882
  C      -10.386     -21.242     -77.502
  C      -11.538     -21.803     -76.999
  C      -11.921     -21.463     -75.645
  O      -12.930     -21.854     -75.069
  N      -12.128     -22.646     -77.910
  C      -11.286     -22.660     -78.923
  N      -10.257     -21.764     -78.756
  O      -11.037     -26.553     -82.886
  O       -8.493     -26.677     -83.039
  H       -6.928     -20.798     -80.810
  H      -10.900     -26.405     -83.839
  H      -11.198     -20.386     -74.082
  H      -11.396     -23.262     -79.818
  H       -9.316     -20.306     -79.862
  H       -7.733     -22.264     -78.513
  H       -9.192     -19.248     -73.876
  H       -8.230     -24.011     -80.000
  H       -8.104     -19.181     -75.205
  H       -8.169     -22.038     -82.357
  H      -10.210     -23.542     -82.951
  H       -8.608     -24.242     -83.161
  P       -5.577     -24.444     -80.069
  C       -3.179     -25.453     -80.423
  O       -4.323     -24.835     -80.973
  O       -6.481     -25.764     -80.102
  O       -5.205     -24.055     -78.676
  H       -6.970     -25.867     -79.264
  H       -2.461     -25.628     -81.197
  H       -3.457     -26.385     -79.977
  H       -2.752     -24.814     -79.678

 6  7  8  9  10  11  12  13  14  15  26  29  33  34 0
 6-311+G(2d,p)
 ****
 36  38  39  40  41 0
 6-311+G(2d,p)
 ****
 1  2  3  4  5  16  17  18  19  20  21  22  23  24  25 0
 3-21G
 ****
 27  28  30  31  32  35  37  42  43  44  45  46  47 0
 3-21G
 ****
 48  49 0
 3-21G
 ****


