%nproc=1
%NoSave
%Mem=1900MB
#P OB98/GEN NMR

erre ene a

0 1
  C     -528.310    -577.776    -567.709
  O     -528.688    -578.230    -569.013
  P     -528.974    -577.138    -570.149
  C     -528.694    -578.630    -572.243
  O     -529.595    -577.884    -571.430
  C     -529.392    -579.146    -573.499
  O     -530.449    -580.061    -573.118
  C     -530.073    -578.061    -574.353
  O     -529.305    -577.422    -575.367
  C     -531.147    -578.882    -575.075
  O     -530.579    -579.520    -576.234
  C     -531.550    -579.931    -574.050
  N     -536.613    -579.316    -574.501
  C     -535.661    -579.662    -575.393
  N     -534.338    -579.802    -575.193
  C     -534.020    -579.558    -573.913
  C     -534.880    -579.193    -572.890
  C     -536.238    -579.064    -573.220
  N     -537.206    -578.706    -572.311
  N     -534.186    -579.021    -571.701
  C     -532.927    -579.253    -572.016
  N     -532.778    -579.603    -573.336
  O     -527.855    -576.190    -570.438
  O     -530.246    -576.355    -569.568
  H     -530.387    -578.809    -576.866
  H     -530.163    -575.406    -569.789
  H     -536.011    -579.855    -576.405
  H     -532.096    -579.184    -571.320
  H     -531.706    -580.915    -574.497
  H     -531.964    -578.253    -575.442
  H     -530.550    -577.306    -573.716
  H     -528.671    -579.707    -574.122
  H     -528.301    -579.473    -571.663
  H     -538.153    -578.594    -572.651
  H     -536.937    -578.461    -571.371
  H     -527.836    -577.985    -572.462
  P     -528.812    -575.896    -575.203
  C     -526.710    -576.246    -576.736
  O     -527.948    -575.587    -576.521
  O     -528.131    -575.579    -573.920
  O     -530.164    -575.075    -575.466
  H     -530.499    -575.124    -576.368
  H     -526.384    -576.053    -577.763
  H     -526.811    -577.312    -576.582
  H     -525.957    -575.824    -576.046
  H     -528.155    -578.619    -567.069
  H     -529.087    -577.160    -567.307
  H     -527.405    -577.209    -567.777

 3  4  5  6  7  8  9  10  11  12  22  25  29  30  31  32 0
 6-311+G(2d,p)
 ****
 33  36  37 0
 6-311+G(2d,p)
 ****
 1  2  13  14  15  16  17  18  19  20  21  23  24  26 0
 3-21G
 ****
 27  28  34  35  38  39  40  41  42  43  44  45  46  47  48 0
 3-21G
 ****


