%nproc=1
%NoSave
%Mem=1900MB
#P OB98/GEN NMR

erre ene a

0 1
  C     -976.487    -863.010     185.947
  O     -976.135    -862.312     187.143
  P     -975.428    -863.061     188.378
  C     -976.235    -861.815     190.472
  O     -975.232    -861.946     189.482
  C     -975.783    -860.839     191.567
  O     -974.460    -861.210     192.012
  C     -975.703    -859.395     191.122
  O     -976.993    -858.803     191.046
  C     -974.789    -858.820     192.202
  O     -975.509    -858.561     193.398
  C     -973.788    -859.975     192.442
  N     -972.538    -859.823     191.737
  C     -971.386    -859.770     192.516
  O     -971.452    -859.878     193.760
  N     -970.160    -859.651     191.919
  C     -970.080    -859.532     190.634
  N     -968.843    -859.467     190.065
  C     -971.274    -859.530     189.750
  C     -972.456    -859.662     190.357
  O     -974.195    -863.824     188.016
  O     -976.589    -863.969     188.996
  H     -975.874    -859.408     193.715
  H     -976.655    -864.861     188.573
  H     -971.158    -859.421     188.678
  H     -973.364    -859.703     189.787
  H     -973.593    -860.092     193.510
  H     -974.288    -857.889     191.891
  H     -975.209    -859.325     190.142
  H     -976.469    -860.956     192.433
  H     -968.067    -859.661     190.693
  H     -976.404    -862.814     190.927
  H     -968.703    -859.698     189.083
  H     -977.163    -861.481     190.017
  P     -977.312    -857.919     189.751
  C     -979.215    -856.415     190.673
  O     -978.871    -857.528     189.866
  O     -977.276    -859.006     188.551
  O     -976.362    -856.786     189.511
  H     -976.421    -858.938     188.070
  H     -980.235    -856.139     190.456
  H     -978.554    -855.556     190.454
  H     -979.128    -856.692     191.732
  H     -976.943    -862.330     185.258
  H     -977.175    -863.795     186.182
  H     -975.606    -863.428     185.506

 3  4  5  6  7  8  9  10  11  12  13  23  27  28  29  30  32 0
 6-311+G(2d,p)
 ****
 34  35 0
 6-311+G(2d,p)
 ****
 1  2  14  15  16  17  18  19  20  21  22  24  25  26 0
 3-21G
 ****
 31  33  36  37  38  39  40  41  42  43  44  45  46 0
 3-21G
 ****


