%nproc=1
%NoSave
%Mem=1900MB
#P OB98/GEN NMR

erre ene a

0 1
  C     -474.287     173.620     169.503
  O     -475.649     173.327     169.760
  H     -474.150     174.705     169.533
  H     -473.992     173.262     168.512
  H     -473.651     173.162     170.265
  P     -476.137     171.807     169.617
  C     -478.312     172.869     168.698
  O     -477.338     171.840     168.556
  C     -479.379     172.732     167.616
  O     -478.836     173.094     166.330
  C     -479.899     171.310     167.462
  O     -480.790     170.981     168.509
  C     -480.511     171.377     166.076
  O     -481.809     171.988     166.111
  C     -479.495     172.278     165.335
  N     -478.525     171.514     164.558
  C     -478.654     171.592     163.167
  O     -479.541     172.278     162.660
  N     -477.785     170.868     162.387
  C     -476.861     170.148     162.942
  N     -476.034     169.455     162.115
  C     -476.682     170.050     164.405
  C     -477.542     170.747     165.143
  O     -476.454     171.078     170.885
  O     -474.950     171.109     168.801
  H     -481.671     172.882     166.482
  H     -474.278     170.753     169.412
  H     -475.894     169.442     164.823
  H     -477.480     170.732     166.227
  H     -480.016     172.965     164.656
  H     -480.621     170.387     165.639
  H     -479.061     170.604     167.429
  H     -480.195     173.429     167.846
  H     -476.199     169.545     161.117
  H     -477.790     173.827     168.596
  H     -475.228     168.935     162.429
  H     -478.774     172.829     169.691
  P     -480.372     169.919     169.635
  C     -482.856     169.820     170.322
  O     -481.706     169.073     169.938
  O     -479.688     170.493     170.832
  O     -479.464     168.873     168.826
  H     -478.572     169.253     168.621
  H     -483.674     169.152     170.495
  H     -483.114     170.504     169.541
  H     -482.644     170.365     171.218

 6  7  8  9  10  11  12  13  14  15  16  26  30  31  32  33  35 0
 6-311+G(2d,p)
 ****
 37  38 0
 6-311+G(2d,p)
 ****
 1  2  3  4  5  17  18  19  20  21  22  23  24  25 0
 3-21G
 ****
 27  28  29  34  36  39  40  41  42  43  44  45  46 0
 3-21G
 ****


