%nproc=1
%NoSave
%Mem=1900MB
#P OB98/GEN NMR

erre ene a

0 1
  C     -179.471     368.404     -37.127
  O     -179.274     369.755     -37.506
  H     -179.172     367.760     -37.958
  H     -180.524     368.218     -36.898
  H     -178.853     368.161     -36.257
  P     -179.680     370.909     -36.468
  C     -177.520     370.503     -35.104
  O     -178.942     370.544     -35.086
  C     -176.943     371.593     -34.198
  O     -177.544     371.527     -32.890
  C     -175.435     371.500     -33.987
  O     -174.738     372.073     -35.085
  C     -175.281     372.310     -32.708
  O     -175.368     373.722     -33.016
  C     -176.519     371.874     -31.909
  N     -178.814     368.458     -28.927
  C     -179.338     369.556     -29.582
  N     -180.655     369.795     -29.396
  N     -178.635     370.354     -30.348
  C     -177.317     370.035     -30.388
  C     -176.675     368.983     -29.764
  C     -177.481     368.069     -28.978
  O     -177.053     367.070     -28.397
  N     -175.316     369.036     -29.962
  C     -175.146     370.083     -30.744
  N     -176.328     370.732     -31.026
  O     -181.148     371.179     -36.321
  O     -178.881     372.202     -36.981
  H     -176.243     373.873     -33.426
  H     -179.423     372.731     -37.593
  H     -179.402     367.884     -28.348
  H     -174.190     370.420     -31.141
  H     -176.919     372.687     -31.289
  H     -174.320     372.148     -32.213
  H     -181.217     369.308     -28.705
  H     -175.117     370.469     -33.794
  H     -181.045     370.632     -29.823
  H     -177.221     372.567     -34.630
  H     -177.196     370.653     -36.143
  H     -177.165     369.522     -34.773
  P     -173.170     371.797     -35.323
  C     -174.031     370.051     -37.041
  O     -173.098     370.339     -36.014
  O     -172.315     371.958     -34.118
  O     -172.783     372.754     -36.544
  H     -172.554     373.675     -36.249
  H     -173.867     369.058     -37.404
  H     -173.906     370.749     -37.843
  H     -175.025     370.129     -36.652

 6  7  8  9  10  11  12  13  14  15  26  29  33  34 0
 6-311+G(2d,p)
 ****
 36  38  39  40  41 0
 6-311+G(2d,p)
 ****
 1  2  3  4  5  16  17  18  19  20  21  22  23  24  25 0
 3-21G
 ****
 27  28  30  31  32  35  37  42  43  44  45  46  47 0
 3-21G
 ****
 48  49 0
 3-21G
 ****


