%nproc=1
%NoSave
%Mem=1900MB
#P OB98/GEN NMR

erre ene a

0 1
  C      114.776     145.811     257.179
  O      114.630     147.219     257.441
  P      115.734     148.237     256.874
  C      118.057     147.926     258.021
  O      117.196     147.580     256.947
  C      119.450     147.302     257.841
  O      120.163     147.967     256.756
  C      120.349     147.384     259.082
  O      121.178     146.215     259.084
  C      121.188     148.618     258.800
  O      122.385     148.669     259.562
  C      121.410     148.453     257.291
  N      121.830     149.678     256.608
  C      123.152     150.084     256.749
  O      123.979     149.518     257.462
  N      123.504     151.213     256.055
  C      122.676     151.979     255.288
  O      123.047     152.998     254.714
  C      121.286     151.517     255.199
  C      120.933     150.409     255.851
  O      115.799     149.339     258.038
  O      115.396     148.887     255.570
  H      122.922     149.400     259.208
  H      115.786     150.232     257.646
  H      124.463     151.515     256.135
  H      120.599     152.096     254.595
  H      119.913     150.043     255.788
  H      122.156     147.669     257.116
  H      120.606     149.517     259.032
  H      119.784     147.452     260.018
  H      119.317     146.256     257.533
  H      117.626     147.564     258.959
  H      118.138     149.016     258.076
  P      120.875     145.063     260.166
  C      122.727     145.431     261.975
  O      121.384     145.602     261.584
  O      121.995     143.989     259.758
  O      119.485     144.517     260.116
  H      122.865     144.392     259.608
  H      123.414     145.612     261.142
  H      122.874     144.418     262.353
  H      122.955     146.141     262.775
  H      113.961     145.279     257.624
  H      115.698     145.464     257.596
  H      114.777     145.643     256.122

 3  4  5  6  7  8  9  10  11  12  13  23  28  29  30  31  32 0
 6-311+G(2d,p)
 ****
 33  34 0
 6-311+G(2d,p)
 ****
 1  2  14  15  16  17  18  19  20  21  22  24  25  26 0
 3-21G
 ****
 27  35  36  37  38  39  40  41  42  43  44  45 0
 3-21G
 ****


