%nproc=1
%NoSave
%Mem=1900MB
#P OB98/GEN NMR

erre ene a

0 1
  C      -48.126      76.095     139.316
  O      -48.631      77.264     138.701
  P      -47.638      78.458     138.317
  C      -48.554      79.992     140.164
  O      -47.401      79.342     139.632
  C      -48.576      79.867     141.685
  O      -48.306      78.504     142.082
  C      -47.531      80.715     142.395
  O      -47.921      82.076     142.429
  C      -47.471      80.033     143.758
  O      -48.545      80.486     144.598
  C      -47.671      78.558     143.379
  N      -44.351      75.902     146.198
  C      -45.416      76.661     146.538
  N      -46.231      77.369     145.730
  C      -45.837      77.262     144.448
  C      -44.748      76.555     143.957
  C      -43.995      75.828     144.895
  N      -42.947      75.002     144.554
  N      -44.652      76.711     142.585
  C      -45.653      77.506     142.266
  N      -46.432      77.808     143.347
  O      -48.009      79.229     137.095
  O      -46.226      77.728     138.115
  H      -48.604      79.868     145.352
  H      -45.916      77.867     137.202
  H      -45.650      76.694     147.597
  H      -45.864      77.871     141.267
  H      -48.341      78.046     144.081
  H      -46.536      80.232     144.288
  H      -46.560      80.605     141.896
  H      -49.589      80.127     142.033
  H      -49.443      79.521     139.737
  H      -42.569      74.416     145.285
  H      -42.865      74.698     143.587
  H      -48.540      81.048     139.872
  P      -47.151      83.148     141.524
  C      -46.401      84.580     143.515
  O      -45.988      83.773     142.432
  O      -48.016      84.141     140.822
  O      -46.338      82.243     140.478
  H      -46.261      82.718     139.629
  H      -46.689      85.571     143.147
  H      -45.569      84.690     144.213
  H      -47.246      84.127     144.041
  H      -48.929      75.412     139.498
  H      -47.661      76.353     140.244
  H      -47.406      75.636     138.672

 3  4  5  6  7  8  9  10  11  12  22  25  29  30  31  32 0
 6-311+G(2d,p)
 ****
 33  36  37 0
 6-311+G(2d,p)
 ****
 1  2  13  14  15  16  17  18  19  20  21  23  24  26 0
 3-21G
 ****
 27  28  34  35  38  39  40  41  42  43  44  45  46  47  48 0
 3-21G
 ****


