%nproc=1
%NoSave
%Mem=1900MB
#P OB98/GEN NMR

erre ene a

0 1
  C     -593.418     225.820    -299.750
  O     -594.518     225.357    -300.537
  P     -594.739     225.996    -301.984
  C     -595.107     223.881    -303.430
  O     -594.226     224.957    -303.100
  C     -594.388     222.535    -303.258
  O     -594.098     222.316    -301.859
  C     -595.202     221.312    -303.711
  O     -595.106     220.893    -305.055
  C     -594.573     220.209    -302.863
  O     -593.367     219.729    -303.516
  C     -594.194     220.911    -301.571
  N     -595.691     217.705    -297.853
  C     -594.676     217.632    -298.748
  N     -594.338     218.550    -299.698
  C     -595.172     219.585    -299.668
  C     -596.254     219.790    -298.828
  C     -596.498     218.778    -297.876
  N     -597.530     218.825    -296.974
  N     -596.889     220.991    -299.101
  C     -596.204     221.493    -300.117
  N     -595.158     220.696    -300.486
  O     -594.288     227.410    -302.149
  O     -596.340     225.909    -302.147
  H     -592.703     220.435    -303.404
  H     -596.653     226.717    -302.627
  H     -594.031     216.763    -298.683
  H     -596.450     222.425    -300.597
  H     -593.215     220.586    -301.183
  H     -595.225     219.345    -302.753
  H     -596.255     221.438    -303.426
  H     -593.426     222.568    -303.798
  H     -595.439     223.993    -304.462
  H     -597.662     218.049    -296.350
  H     -598.202     219.604    -297.016
  H     -595.999     223.978    -302.777
  P     -596.070     221.498    -306.201
  C     -594.498     221.093    -308.251
  O     -595.095     222.012    -307.356
  O     -597.041     222.528    -305.718
  O     -596.733     220.198    -306.826
  H     -596.122     219.633    -307.333
  H     -594.060     221.652    -309.091
  H     -595.240     220.395    -308.645
  H     -593.714     220.522    -307.740
  H     -593.405     225.300    -298.815
  H     -593.523     226.870    -299.573
  H     -592.503     225.637    -300.273

 3  4  5  6  7  8  9  10  11  12  22  25  29  30  31  32 0
 6-311+G(2d,p)
 ****
 33  36  37 0
 6-311+G(2d,p)
 ****
 1  2  13  14  15  16  17  18  19  20  21  23  24  26 0
 3-21G
 ****
 27  28  34  35  38  39  40  41  42  43  44  45  46  47  48 0
 3-21G
 ****


