%nproc=1
%NoSave
%Mem=1900MB
#P OB98/GEN NMR

erre ene a

0 1
  C     -229.018    -594.406    -300.312
  O     -228.176    -593.705    -299.393
  P     -228.927    -592.857    -298.254
  C     -229.137    -590.588    -299.482
  O     -229.809    -591.730    -298.983
  C     -230.134    -589.542    -300.000
  O     -231.036    -589.122    -298.933
  C     -229.466    -588.273    -300.554
  O     -230.278    -587.820    -301.654
  C     -229.576    -587.317    -299.380
  O     -229.359    -585.961    -299.735
  C     -230.968    -587.679    -298.876
  N     -233.384    -584.083    -296.175
  C     -233.273    -584.293    -297.507
  N     -232.605    -585.273    -298.151
  C     -232.013    -586.098    -297.267
  C     -232.031    -586.013    -295.885
  C     -232.761    -584.949    -295.331
  N     -232.860    -584.710    -293.979
  N     -231.282    -587.035    -295.324
  C     -230.761    -587.672    -296.357
  N     -231.246    -587.196    -297.543
  O     -227.745    -592.035    -297.556
  O     -229.676    -593.707    -297.280
  H     -229.977    -585.697    -300.442
  H     -227.464    -592.465    -296.731
  H     -233.794    -583.571    -298.138
  H     -230.048    -588.480    -296.301
  H     -231.760    -587.285    -299.535
  H     -228.815    -587.578    -298.628
  H     -228.440    -588.428    -300.906
  H     -230.746    -590.009    -300.783
  H     -228.463    -590.874    -300.302
  H     -233.398    -583.911    -293.678
  H     -232.397    -585.312    -293.325
  H     -228.501    -590.173    -298.696
  P     -230.028    -588.452    -303.108
  C     -229.589    -586.119    -304.080
  O     -229.051    -587.409    -303.842
  O     -231.429    -588.122    -303.814
  O     -229.655    -589.895    -303.145
  H     -231.671    -587.183    -303.693
  H     -228.795    -585.494    -304.504
  H     -229.925    -585.675    -303.138
  H     -230.413    -586.179    -304.792
  H     -228.413    -594.932    -301.020
  H     -229.644    -593.707    -300.827
  H     -229.628    -595.103    -299.776

 3  4  5  6  7  8  9  10  11  12  22  25  29  30  31  32 0
 6-311+G(2d,p)
 ****
 33  36  37 0
 6-311+G(2d,p)
 ****
 1  2  13  14  15  16  17  18  19  20  21  23  24  26 0
 3-21G
 ****
 27  28  34  35  38  39  40  41  42  43  44  45  46  47  48 0
 3-21G
 ****


