%nproc=1
%NoSave
%Mem=1900MB
#P OB98/GEN NMR

erre ene a

0 1
  C      108.534     -81.269     139.900
  O      109.774     -81.245     140.579
  H      107.782     -81.703     140.564
  H      108.600     -81.882     138.997
  H      108.225     -80.254     139.639
  P      111.073     -80.757     139.778
  C      110.990     -78.336     140.683
  O      111.714     -79.556     140.627
  C      111.879     -77.198     141.204
  O      111.180     -75.935     141.025
  C      112.227     -77.320     142.699
  O      113.511     -76.712     142.889
  C      111.136     -76.479     143.329
  O      111.433     -76.170     144.668
  C      111.069     -75.319     142.329
  N      109.852     -74.535     142.463
  C      109.850     -73.559     143.461
  O      110.838     -73.408     144.183
  N      108.724     -72.800     143.645
  C      107.665     -73.043     142.934
  N      106.573     -72.267     143.173
  C      107.602     -74.103     141.909
  C      108.723     -74.801     141.722
  O      110.870     -80.462     138.329
  O      112.124     -81.948     139.987
  H      112.306     -75.717     144.738
  H      112.195     -82.472     139.169
  H      106.691     -74.280     141.357
  H      108.775     -75.602     140.989
  H      111.931     -74.648     142.450
  H      110.186     -77.021     143.336
  H      112.242     -78.355     143.050
  H      112.786     -77.151     140.588
  H      106.654     -71.559     143.896
  H      110.142     -78.485     141.357
  H      105.689     -72.375     142.699
  H      110.609     -78.076     139.687
  P      114.868     -77.561     143.011
  C      115.055     -78.947     140.843
  O      115.486     -77.788     141.551
  O      114.728     -78.814     143.814
  O      115.918     -76.567     143.709
  H      116.544     -77.091     144.243
  H      115.538     -78.982     139.889
  H      113.995     -78.907     140.705
  H      115.309     -79.822     141.404

 6  7  8  9  10  11  12  13  14  15  16  26  30  31  32  33  35 0
 6-311+G(2d,p)
 ****
 37  38 0
 6-311+G(2d,p)
 ****
 1  2  3  4  5  17  18  19  20  21  22  23  24  25 0
 3-21G
 ****
 27  28  29  34  36  39  40  41  42  43  44  45  46 0
 3-21G
 ****


