%nproc=1
%NoSave
%Mem=1900MB
#P OB98/GEN NMR

erre ene a

0 1
  C     -665.405    -465.928     378.379
  O     -666.480    -466.151     377.488
  H     -664.668    -466.743     378.291
  H     -664.922    -464.991     378.124
  H     -665.772    -465.876     379.413
  P     -667.309    -467.517     377.689
  C     -667.366    -469.725     376.343
  O     -666.570    -468.647     376.811
  C     -666.468    -470.920     376.000
  O     -665.639    -470.548     374.870
  C     -665.542    -471.368     377.150
  O     -665.638    -472.783     377.351
  C     -664.145    -471.049     376.639
  O     -663.167    -471.978     377.083
  C     -664.321    -471.069     375.123
  N     -659.437    -471.020     373.655
  C     -660.260    -472.038     373.969
  N     -661.580    -471.990     374.258
  C     -662.044    -470.732     374.163
  C     -661.325    -469.589     373.841
  C     -659.948    -469.761     373.585
  N     -659.101    -468.724     373.317
  N     -662.148    -468.473     373.853
  C     -663.327    -468.934     374.244
  N     -663.309    -470.284     374.453
  O     -668.669    -467.238     376.884
  O     -667.571    -467.872     379.117
  H     -663.443    -472.867     376.764
  H     -669.423    -467.284     377.514
  H     -659.803    -473.020     373.997
  H     -664.210    -468.321     374.410
  H     -664.285    -472.094     374.730
  H     -663.851    -470.043     376.987
  H     -665.754    -470.843     378.087
  H     -667.104    -471.754     375.676
  H     -667.904    -469.421     375.444
  H     -658.106    -468.912     373.277
  H     -659.458    -467.767     373.385
  H     -668.085    -470.002     377.118
  P     -666.339    -473.243     378.735
  C     -665.503    -474.424     380.905
  O     -665.168    -473.606     379.777
  O     -666.972    -474.669     378.356
  O     -667.373    -472.292     379.237
  H     -667.926    -474.662     378.541
  H     -664.630    -474.580     381.504
  H     -665.874    -475.368     380.564
  H     -666.254    -473.935     381.489

 6  7  8  9  10  11  12  13  14  15  25  28  32  33  34  35 0
 6-311+G(2d,p)
 ****
 36  39  40 0
 6-311+G(2d,p)
 ****
 1  2  3  4  5  16  17  18  19  20  21  22  23  24 0
 3-21G
 ****
 26  27  29  30  31  37  38  41  42  43  44  45  46  47  48 0
 3-21G
 ****


