%nproc=1
%NoSave
%Mem=1900MB
#P OB98/GEN NMR

erre ene a

0 1
  C      139.270     335.389     133.271
  O      138.583     335.707     134.469
  P      137.351     336.732     134.368
  C      138.984     338.633     135.099
  O      137.719     338.003     135.272
  C      138.892     340.095     135.538
  O      138.127     340.863     134.588
  C      138.188     340.285     136.876
  O      139.046     339.983     137.966
  C      137.793     341.754     136.809
  O      138.884     342.601     137.200
  C      137.475     341.928     135.311
  N      136.042     341.965     135.040
  C      135.403     343.172     135.304
  O      135.995     344.154     135.756
  N      134.057     343.204     135.065
  C      133.293     342.156     134.651
  O      132.076     342.228     134.508
  C      134.013     340.891     134.417
  C      135.330     340.856     134.624
  O      136.185     336.007     135.187
  O      136.931     337.063     132.976
  H      139.220     342.251     138.048
  H      135.321     336.194     134.771
  H      133.583     344.078     135.224
  H      133.436     340.036     134.090
  H      135.881     339.931     134.472
  H      137.918     342.858     134.936
  H      136.952     341.984     137.472
  H      137.281     339.671     136.915
  H      139.909     340.508     135.579
  H      139.271     338.580     134.047
  H      139.732     338.099     135.689
  P      138.818     338.573     138.701
  C      136.999     339.705     140.194
  O      138.187     338.950     140.126
  O      140.333     338.150     139.013
  O      138.053     337.597     137.872
  H      140.904     338.921     139.181
  H      136.317     339.458     139.377
  H      137.245     340.769     140.155
  H      136.502     339.494     141.143
  H      140.061     334.701     133.485
  H      139.679     336.282     132.847
  H      138.588     334.944     132.576

 3  4  5  6  7  8  9  10  11  12  13  23  28  29  30  31  32 0
 6-311+G(2d,p)
 ****
 33  34 0
 6-311+G(2d,p)
 ****
 1  2  14  15  16  17  18  19  20  21  22  24  25  26 0
 3-21G
 ****
 27  35  36  37  38  39  40  41  42  43  44  45 0
 3-21G
 ****


