%nproc=1
%NoSave
%Mem=1900MB
#P OB98/GEN NMR

erre ene a

0 1
  C     -102.626     118.065    1392.391
  O     -103.843     117.350    1392.325
  H     -102.791     119.077    1392.033
  H     -101.885     117.584    1391.756
  H     -102.277     118.096    1393.420
  P     -103.791     115.787    1392.697
  C     -105.616     116.198    1394.527
  O     -105.227     115.509    1393.345
  C     -107.135     116.257    1394.643
  O     -107.712     114.944    1394.442
  C     -107.658     116.724    1396.024
  O     -107.575     118.123    1396.189
  C     -109.099     116.255    1395.933
  O     -109.834     117.119    1395.053
  C     -108.911     114.842    1395.284
  N     -108.757     113.776    1396.277
  C     -109.924     113.112    1396.664
  O     -111.011     113.432    1396.201
  N     -109.834     112.119    1397.622
  C     -108.680     111.798    1398.121
  N     -108.661     110.809    1399.063
  C     -107.403     112.454    1397.726
  C     -107.525     113.422    1396.806
  O     -102.814     115.748    1393.975
  O     -103.405     114.859    1391.593
  H     -109.835     117.996    1395.454
  H     -102.827     114.838    1394.385
  H     -106.467     112.156    1398.176
  H     -106.639     113.941    1396.465
  H     -109.747     114.606    1394.607
  H     -109.609     116.231    1396.880
  H     -107.152     116.183    1396.836
  H     -107.509     116.889    1393.848
  H     -109.561     110.425    1399.344
  H     -105.205     117.227    1394.468
  H     -107.832     110.597    1399.613
  H     -105.192     115.687    1395.405
  P     -107.139     118.653    1397.654
  C     -105.788     120.454    1396.364
  O     -106.639     120.170    1397.477
  O     -105.784     117.832    1397.981
  O     -108.166     118.446    1398.736
  H     -105.724     117.628    1398.942
  H     -105.532     121.493    1396.367
  H     -106.298     120.214    1395.455
  H     -104.896     119.867    1396.438

 6  7  8  9  10  11  12  13  14  15  16  26  30  31  32  33  35 0
 6-311+G(2d,p)
 ****
 37  38 0
 6-311+G(2d,p)
 ****
 1  2  3  4  5  17  18  19  20  21  22  23  24  25 0
 3-21G
 ****
 27  28  29  34  36  39  40  41  42  43  44  45  46 0
 3-21G
 ****


