%nproc=1
%NoSave
%Mem=1900MB
#P OB98/GEN NMR

erre ene a

0 1
  C       35.473      65.567      21.063
  O       34.162      65.897      20.658
  H       35.634      65.956      22.071
  H       36.197      66.031      20.388
  H       35.622      64.486      21.078
  P       33.551      65.181      19.364
  C       31.271      64.054      18.924
  O       31.961      65.116      19.567
  C       29.805      64.009      19.372
  O       29.755      63.695      20.787
  C       29.122      65.369      19.193
  O       27.719      65.241      18.980
  C       29.359      66.042      20.535
  O       28.416      67.076      20.818
  C       29.274      64.853      21.489
  N       29.311      64.558      26.578
  C       28.245      64.459      25.705
  N       27.029      64.250      26.263
  N       28.357      64.576      24.408
  C       29.617      64.853      23.997
  C       30.749      64.998      24.766
  C       30.618      64.831      26.198
  O       31.525      64.932      27.018
  N       31.846      65.287      23.993
  C       31.380      65.322      22.762
  N       30.036      65.040      22.709
  O       33.984      63.648      19.542
  O       34.004      65.730      18.045
  H       28.547      67.345      21.746
  H       33.979      63.193      18.681
  H       29.174      64.430      27.565
  H       31.969      65.529      21.878
  H       28.233      64.662      21.778
  H       30.349      66.504      20.517
  H       26.877      64.352      27.255
  H       29.551      65.952      18.382
  H       26.219      64.486      25.684
  H       29.277      63.204      18.850
  H       31.784      63.129      19.196
  H       31.340      64.156      17.841
  P       27.172      65.215      17.475
  C       25.983      63.269      16.133
  O       26.104      64.041      17.307
  O       28.427      64.715      16.624
  O       26.651      66.530      16.986
  H       28.725      65.415      16.013
  H       25.202      62.548      16.259
  H       26.907      62.764      15.941
  H       25.748      63.909      15.308

 6  7  8  9  10  11  12  13  14  15  26  29  33  34 0
 6-311+G(2d,p)
 ****
 36  38  39  40  41 0
 6-311+G(2d,p)
 ****
 1  2  3  4  5  16  17  18  19  20  21  22  23  24  25 0
 3-21G
 ****
 27  28  30  31  32  35  37  42  43  44  45  46  47 0
 3-21G
 ****
 48  49 0
 3-21G
 ****


