%nproc=1
%NoSave
%Mem=1900MB
#P OB98/GEN NMR

erre ene a

0 1
  C       -3.908     -79.930      12.298
  O       -4.940     -80.396      13.140
  H       -3.422     -79.077      12.777
  H       -4.323     -79.602      11.341
  H       -3.159     -80.709      12.131
  P       -5.694     -81.757      12.759
  C       -5.138     -84.266      13.005
  O       -4.631     -82.941      12.941
  C       -4.011     -85.267      13.282
  O       -3.072     -85.232      12.164
  C       -3.201     -84.969      14.560
  O       -2.734     -86.229      15.063
  C       -2.061     -84.143      13.991
  O       -1.015     -83.959      14.910
  C       -1.769     -84.960      12.725
  N       -0.912     -84.308      11.743
  C        0.308     -83.804      12.183
  O        0.717     -83.875      13.341
  N        1.077     -83.191      11.229
  C        0.759     -83.049       9.910
  O        1.503     -82.518       9.095
  C       -0.546     -83.594       9.507
  C       -1.307     -84.194      10.425
  O       -6.419     -81.753      11.455
  O       -6.696     -81.989      13.988
  H       -7.598     -81.723      13.729
  H       -1.310     -83.337      15.610
  H        1.966     -82.825      11.528
  H       -0.834     -83.488       8.471
  H       -2.270     -84.613      10.156
  H       -1.331     -85.926      12.997
  H       -2.417     -83.142      13.737
  H       -3.787     -84.463      15.331
  H       -4.434     -86.278      13.309
  H       -5.609     -84.498      12.044
  H       -5.894     -84.323      13.795
  P       -3.415     -86.995      16.298
  C       -4.425     -89.334      16.759
  O       -3.891     -88.441      15.787
  O       -4.493     -86.214      16.976
  O       -2.217     -87.319      17.308
  H       -2.565     -87.392      18.216
  H       -4.700     -90.253      16.286
  H       -5.289     -88.894      17.212
  H       -3.688     -89.526      17.510

 6  7  8  9  10  11  12  13  14  15  16  27  31  32  33  34  35 0
 6-311+G(2d,p)
 ****
 36  37 0
 6-311+G(2d,p)
 ****
 1  2  3  4  5  17  18  19  20  21  22  23  24  25 0
 3-21G
 ****
 26  28  29  30  38  39  40  41  42  43  44  45 0
 3-21G
 ****


