%nproc=1
%NoSave
%Mem=1900MB
#P OB98/GEN NMR

erre ene a

0 1
  C       83.088     433.771     -41.170
  O       83.563     432.895     -42.172
  H       83.846     434.523     -40.934
  H       82.193     434.281     -41.541
  H       82.826     433.208     -40.268
  P       84.899     432.072     -41.838
  C       86.311     433.680     -43.321
  O       85.883     432.346     -43.079
  C       87.453     433.668     -44.332
  O       88.656     433.154     -43.716
  C       87.194     432.773     -45.540
  O       86.399     433.407     -46.528
  C       88.612     432.545     -46.035
  O       89.074     433.712     -46.736
  C       89.376     432.374     -44.712
  N       91.722     427.878     -45.412
  C       91.902     429.089     -45.984
  N       91.251     430.241     -45.728
  C       90.334     430.066     -44.762
  C       90.045     428.895     -44.081
  C       90.782     427.754     -44.445
  N       90.577     426.510     -43.885
  N       89.024     429.101     -43.173
  C       88.722     430.378     -43.294
  N       89.465     430.996     -44.262
  O       84.470     430.545     -42.050
  O       85.506     432.329     -40.499
  H       89.346     434.361     -46.055
  H       85.135     429.947     -41.662
  H       92.669     429.134     -46.752
  H       87.970     430.899     -42.712
  H       90.400     432.767     -44.764
  H       88.688     431.703     -46.729
  H       86.760     431.809     -45.242
  H       87.653     434.698     -44.644
  H       86.659     434.122     -42.382
  H       91.052     425.732     -44.315
  H       89.787     426.377     -43.275
  H       85.473     434.268     -43.708
  P       85.525     432.465     -47.497
  C       86.305     433.886     -49.525
  O       85.209     433.334     -48.808
  O       84.113     432.400     -46.746
  O       86.105     431.111     -47.735
  H       83.680     431.540     -46.900
  H       85.940     434.435     -50.368
  H       86.944     433.097     -49.863
  H       86.856     434.542     -48.884

 6  7  8  9  10  11  12  13  14  15  25  28  32  33  34  35 0
 6-311+G(2d,p)
 ****
 36  39  40 0
 6-311+G(2d,p)
 ****
 1  2  3  4  5  16  17  18  19  20  21  22  23  24 0
 3-21G
 ****
 26  27  29  30  31  37  38  41  42  43  44  45  46  47 0
 3-21G
 ****
 48 0
 3-21G
 ****


