%nproc=1
%NoSave
%Mem=1900MB
#P OB98/GEN NMR

erre ene a

0 1
  C     -771.331     819.567     137.262
  O     -771.866     818.268     137.153
  P     -770.990     816.954     137.273
  C     -771.245     817.036     139.881
  O     -770.380     816.853     138.756
  C     -771.013     815.960     140.955
  O     -769.646     816.070     141.418
  C     -771.940     816.175     142.185
  O     -772.479     814.961     142.680
  C     -771.059     817.001     143.114
  O     -771.491     816.944     144.475
  C     -769.665     816.456     142.809
  N     -764.668     816.970     143.604
  C     -765.345     815.881     143.106
  N     -764.666     814.715     143.017
  N     -766.617     815.913     142.809
  C     -767.235     817.090     143.093
  C     -766.630     818.245     143.560
  C     -765.239     818.217     143.874
  O     -764.605     819.120     144.390
  N     -767.573     819.229     143.770
  C     -768.728     818.671     143.458
  N     -768.575     817.368     143.075
  O     -770.074     816.648     136.133
  O     -772.131     815.801     137.313
  H     -772.351     817.402     144.505
  H     -771.771     815.031     136.850
  H     -763.695     816.856     143.896
  H     -769.689     819.142     143.513
  H     -769.456     815.546     143.409
  H     -771.140     818.041     142.784
  H     -763.735     814.649     143.386
  H     -772.814     816.747     141.884
  H     -765.180     813.862     142.912
  H     -771.133     814.961     140.488
  H     -772.262     816.971     139.492
  H     -771.122     818.027     140.293
  P     -773.852     814.734     143.461
  C     -774.881     814.003     141.209
  O     -775.061     814.781     142.380
  O     -774.087     816.066     144.301
  O     -773.885     813.542     144.368
  H     -774.466     815.855     145.180
  H     -775.612     814.338     140.445
  H     -775.026     812.962     141.419
  H     -773.870     814.152     140.815
  H     -772.115     820.286     137.147
  H     -770.596     819.715     136.499
  H     -770.876     819.686     138.223

 3  4  5  6  7  8  9  10  11  12  23  26  30  31 0
 6-311+G(2d,p)
 ****
 33  35  36  37  38 0
 6-311+G(2d,p)
 ****
 1  2  13  14  15  16  17  18  19  20  21  22  24  25 0
 3-21G
 ****
 27  28  29  32  34  39  40  41  42  43  44  45  46  47  48  49 0
 3-21G
 ****


