%nproc=1
%NoSave
%Mem=1900MB
#P OB98/GEN NMR

erre ene a

0 1
  C      635.770     410.354     -72.433
  O      635.298     409.547     -73.495
  H      636.367     409.735     -71.760
  H      634.923     410.758     -71.872
  H      636.395     411.167     -72.808
  P      634.546     410.248     -74.722
  C      636.632     409.715     -76.146
  O      635.679     410.694     -75.768
  C      637.525     410.237     -77.274
  O      636.713     410.403     -78.474
  C      638.192     411.600     -76.983
  O      639.441     411.621     -77.692
  C      637.181     412.548     -77.604
  O      637.668     413.859     -77.721
  C      636.889     411.771     -78.905
  N      635.722     412.239     -79.653
  C      635.946     412.882     -80.864
  O      637.051     413.079     -81.354
  N      634.818     413.308     -81.532
  C      633.533     413.135     -81.112
  O      632.566     413.508     -81.757
  C      633.364     412.456     -79.822
  C      634.445     412.046     -79.160
  O      633.569     411.314     -74.356
  O      633.833     409.027     -75.475
  H      632.882     409.009     -75.241
  H      638.565     413.834     -78.113
  H      634.967     413.761     -82.409
  H      632.351     412.322     -79.448
  H      634.355     411.533     -78.210
  H      637.772     411.800     -79.563
  H      636.293     412.615     -76.982
  H      638.369     411.765     -75.920
  H      638.281     409.469     -77.509
  H      636.097     408.817     -76.486
  H      637.246     409.447     -75.275
  P      640.711     412.476     -77.215
  C      640.627     410.735     -75.307
  O      641.115     411.991     -75.727
  O      640.526     413.953     -77.337
  O      641.932     411.967     -78.133
  H      642.596     412.677     -78.199
  H      640.965     410.536     -74.311
  H      640.989     409.973     -75.966
  H      639.557     410.744     -75.326

 6  7  8  9  10  11  12  13  14  15  16  27  31  32  33  34  35 0
 6-311+G(2d,p)
 ****
 36  37 0
 6-311+G(2d,p)
 ****
 1  2  3  4  5  17  18  19  20  21  22  23  24  25 0
 3-21G
 ****
 26  28  29  30  38  39  40  41  42  43  44  45 0
 3-21G
 ****


