%nproc=1
%NoSave
%Mem=1900MB
#P OB98/GEN NMR

erre ene a

0 1
  C      823.763      47.717    -264.783
  O      823.225      48.816    -264.076
  P      823.230      50.298    -264.686
  C      825.039      51.917    -265.556
  O      824.775      50.635    -264.983
  C      826.424      52.428    -265.150
  O      826.481      52.584    -263.697
  C      827.593      51.509    -265.562
  O      828.688      52.383    -265.853
  C      827.855      50.738    -264.288
  O      829.154      50.137    -264.267
  C      827.605      51.804    -263.222
  N      827.353      51.228    -261.907
  C      828.454      51.087    -261.060
  O      829.586      51.376    -261.466
  N      828.261      50.579    -259.806
  C      827.089      50.149    -259.460
  N      826.953      49.664    -258.195
  C      825.929      50.159    -260.364
  C      826.117      50.721    -261.562
  O      822.505      51.321    -263.882
  O      822.638      50.102    -266.164
  H      829.443      50.078    -263.330
  H      821.656      49.997    -266.128
  H      824.980      49.739    -260.054
  H      825.329      50.782    -262.292
  H      828.470      52.490    -263.149
  H      827.121      49.923    -264.194
  H      827.367      50.873    -266.413
  H      826.558      53.425    -265.589
  H      827.773      49.687    -257.603
  H      824.287      52.614    -265.186
  H      826.065      49.379    -257.797
  H      824.946      51.861    -266.646
  P      829.609      52.159    -267.158
  C      831.612      50.626    -267.556
  O      830.318      50.734    -266.985
  O      830.522      53.293    -267.481
  O      828.549      51.892    -268.343
  H      828.997      52.007    -269.201
  H      832.106      49.731    -267.137
  H      832.218      51.499    -267.329
  H      831.533      50.509    -268.642
  H      823.657      46.829    -264.196
  H      824.800      47.893    -264.980
  H      823.240      47.598    -265.709

 3  4  5  6  7  8  9  10  11  12  13  23  27  28  29  30  32 0
 6-311+G(2d,p)
 ****
 34  35 0
 6-311+G(2d,p)
 ****
 1  2  14  15  16  17  18  19  20  21  22  24  25  26 0
 3-21G
 ****
 31  33  36  37  38  39  40  41  42  43  44  45  46 0
 3-21G
 ****


