%nproc=1
%NoSave
%Mem=1900MB
#P OB98/GEN NMR

erre ene a

0 1
  C      146.326     557.018     266.584
  O      145.662     555.985     265.855
  P      146.485     555.170     264.748
  C      146.505     554.934     262.179
  O      146.060     555.705     263.295
  C      146.601     555.804     260.908
  O      145.261     556.282     260.533
  C      147.504     557.039     261.084
  O      148.480     557.170     260.056
  C      146.517     558.192     261.227
  O      147.087     559.441     260.862
  C      145.325     557.707     260.376
  N      144.081     558.362     260.788
  C      143.660     559.441     260.023
  O      144.314     559.902     259.093
  N      142.476     560.030     260.405
  C      141.729     559.696     261.486
  O      140.695     560.272     261.821
  C      142.238     558.575     262.314
  C      143.385     557.984     261.928
  O      146.468     553.670     264.900
  O      147.979     555.730     264.904
  H      147.444     559.372     259.955
  H      148.599     554.981     264.785
  H      142.164     560.803     259.831
  H      141.703     558.302     263.192
  H      143.805     557.165     262.506
  H      145.488     557.933     259.318
  H      146.202     558.254     262.268
  H      148.092     556.958     262.009
  H      146.971     555.166     260.089
  H      145.802     554.115     261.983
  H      147.460     554.448     262.413
  P      150.072     557.210     260.296
  C      151.859     559.083     260.422
  O      150.496     558.738     260.530
  O      150.895     556.465     259.306
  O      150.220     556.544     261.762
  H      151.006     555.973     261.762
  H      152.035     560.018     260.957
  H      152.110     559.218     259.360
  H      152.520     558.300     260.850
  H      145.643     557.460     267.278
  H      146.677     557.766     265.904
  H      147.156     556.602     267.116

 3  4  5  6  7  8  9  10  11  12  13  23  28  29  30  31  32 0
 6-311+G(2d,p)
 ****
 33  34 0
 6-311+G(2d,p)
 ****
 1  2  14  15  16  17  18  19  20  21  22  24  25  26  27 0
 3-21G
 ****
 35  36  37  38  39  40  41  42  43  44  45 0
 3-21G
 ****


