%nproc=1
%NoSave
%Mem=1900MB
#P OB98/GEN NMR

erre ene a

0 1
  C      112.853     296.554    -126.347
  O      113.144     295.217    -125.935
  P      113.009     294.897    -124.365
  C      115.570     294.942    -123.960
  O      114.364     294.193    -123.866
  C      116.806     294.063    -123.726
  O      116.948     293.729    -122.322
  C      116.774     292.745    -124.508
  O      118.120     292.429    -124.868
  C      116.296     291.744    -123.466
  O      116.647     290.416    -123.835
  C      116.996     292.293    -122.209
  N      116.389     291.821    -120.966
  C      116.688     290.520    -120.565
  O      117.382     289.790    -121.282
  N      116.171     290.049    -119.384
  C      115.369     290.801    -118.690
  N      114.885     290.286    -117.528
  C      114.979     292.168    -119.107
  C      115.524     292.606    -120.235
  O      111.927     293.717    -124.321
  O      112.565     296.071    -123.555
  H      116.234     289.802    -123.191
  H      111.232     293.922    -123.669
  H      114.300     292.754    -118.502
  H      115.300     293.590    -120.623
  H      118.057     291.993    -122.198
  H      115.206     291.804    -123.354
  H      116.148     292.785    -125.402
  H      117.691     294.641    -124.021
  H      115.184     289.352    -117.275
  H      115.556     295.745    -123.222
  H      114.261     290.781    -116.917
  H      115.611     295.428    -124.937
  P      118.496     292.358    -126.421
  C      120.413     290.654    -126.236
  O      120.062     292.015    -126.452
  O      118.519     293.917    -126.816
  O      117.610     291.575    -127.331
  H      118.664     294.009    -127.774
  H      121.484     290.537    -126.407
  H      119.869     290.006    -126.930
  H      120.186     290.371    -125.205
  H      112.979     296.636    -127.406
  H      113.519     297.232    -125.855
  H      111.843     296.795    -126.088

 3  4  5  6  7  8  9  10  11  12  13  21  23  27  28  29  30  32 0
 6-311+G(2d,p)
 ****
 34  35 0
 6-311+G(2d,p)
 ****
 1  2  14  15  16  17  18  19  20  22  24  25  26 0
 3-21G
 ****
 31  33  36  37  38  39  40  41  42  43  44  45  46 0
 3-21G
 ****


