%nproc=1
%NoSave
%Mem=1900MB
#P OB98/GEN NMR

erre ene a

0 1
  C      420.561    -847.763    1241.654
  O      419.792    -848.031    1242.805
  H      419.893    -847.503    1240.826
  H      421.145    -848.641    1241.367
  H      421.231    -846.916    1241.837
  P      420.535    -848.546    1244.125
  C      419.325    -846.796    1245.597
  O      419.574    -848.169    1245.362
  C      417.816    -846.527    1245.742
  O      417.171    -846.755    1244.455
  C      417.118    -847.459    1246.764
  O      416.020    -846.730    1247.328
  C      416.629    -848.578    1245.866
  O      415.683    -849.390    1246.529
  C      416.166    -847.772    1244.646
  N      415.978    -848.606    1243.470
  C      414.925    -849.526    1243.522
  O      414.225    -849.625    1244.530
  N      414.714    -850.343    1242.431
  C      415.513    -850.288    1241.412
  N      415.263    -851.130    1240.388
  C      416.676    -849.354    1241.349
  C      416.838    -848.556    1242.402
  O      421.961    -848.117    1244.275
  O      420.403    -850.146    1244.048
  H      415.261    -850.027    1245.901
  H      421.261    -850.529    1243.787
  H      417.321    -849.358    1240.480
  H      417.654    -847.842    1242.452
  H      415.204    -847.259    1244.867
  H      417.454    -849.246    1245.582
  H      417.793    -847.802    1247.563
  H      417.663    -845.477    1245.998
  H      414.461    -851.758    1240.457
  H      419.710    -846.241    1244.733
  H      415.841    -851.197    1239.542
  H      419.843    -846.451    1246.496
  P      415.533    -846.914    1248.835
  C      416.443    -844.573    1249.472
  O      415.348    -845.483    1249.523
  O      416.378    -847.860    1249.643
  O      414.018    -847.480    1248.724
  H      413.839    -848.060    1249.487
  H      416.175    -843.664    1249.969
  H      416.685    -844.363    1248.451
  H      417.292    -845.008    1249.957

 6  7  8  9  10  11  12  13  14  15  16  26  30  31  32  33  35 0
 6-311+G(2d,p)
 ****
 37  38 0
 6-311+G(2d,p)
 ****
 1  2  3  4  5  17  18  19  20  21  22  23  24  25 0
 3-21G
 ****
 27  28  29  34  36  39  40  41  42  43  44  45  46 0
 3-21G
 ****


