%nproc=1
%NoSave
%Mem=1900MB
#P OB98/GEN NMR

erre ene a

0 1
  C      633.768     -39.324    -772.700
  O      634.490     -40.218    -773.510
  H      634.459     -38.867    -771.983
  H      632.992     -39.869    -772.147
  H      633.305     -38.529    -773.295
  P      633.810     -40.751    -774.866
  C      635.516     -42.622    -775.404
  O      634.993     -41.364    -775.778
  C      637.055     -42.634    -775.457
  O      637.491     -41.826    -776.573
  C      637.633     -41.989    -774.189
  O      638.925     -42.512    -773.868
  C      637.780     -40.524    -774.587
  O      638.724     -39.817    -773.784
  C      638.169     -40.656    -776.058
  N      638.759     -35.651    -776.801
  C      639.216     -36.433    -775.762
  N      639.894     -35.802    -774.787
  N      639.012     -37.721    -775.691
  C      638.228     -38.201    -776.696
  C      637.705     -37.521    -777.755
  C      637.977     -36.107    -777.858
  O      637.588     -35.342    -778.749
  N      636.964     -38.350    -778.578
  C      637.039     -39.528    -778.002
  N      637.821     -39.501    -776.856
  O      633.435     -39.404    -775.650
  O      632.623     -41.642    -774.695
  H      638.652     -38.884    -774.010
  H      632.698     -39.573    -776.274
  H      638.968     -34.661    -776.818
  H      636.578     -40.436    -778.365
  H      639.247     -40.807    -776.155
  H      636.807     -40.036    -774.435
  H      639.936     -34.786    -774.709
  H      636.970     -42.112    -773.335
  H      639.989     -36.295    -773.893
  H      637.427     -43.641    -775.627
  H      635.108     -43.370    -776.099
  H      635.165     -42.886    -774.400
  P      639.036     -44.088    -773.532
  C      638.486     -43.991    -770.975
  O      639.441     -44.219    -771.994
  O      640.341     -44.539    -774.349
  O      637.826     -44.874    -773.944
  H      640.079     -45.050    -775.133
  H      638.946     -44.126    -770.018
  H      637.677     -44.683    -771.083
  H      638.113     -42.991    -771.053

 6  7  8  9  10  11  12  13  14  15  26  29  33  34 0
 6-311+G(2d,p)
 ****
 36  38  39  40  41 0
 6-311+G(2d,p)
 ****
 1  2  3  4  5  16  17  18  19  20  21  22  23  24  25 0
 3-21G
 ****
 27  28  30  31  32  35  37  42  43  44  45  46  47 0
 3-21G
 ****
 48  49 0
 3-21G
 ****


