%nproc=1
%NoSave
%Mem=1900MB
#P OB98/GEN NMR

erre ene a

0 1
  C     -509.119    -107.081    -112.733
  O     -509.425    -107.432    -114.082
  P     -510.782    -108.248    -114.352
  C     -511.484    -106.958    -116.497
  O     -511.110    -108.200    -115.928
  C     -511.649    -107.072    -118.019
  O     -510.376    -106.858    -118.694
  C     -512.179    -108.429    -118.485
  O     -512.937    -108.238    -119.681
  C     -510.910    -109.183    -118.831
  O     -511.167    -110.303    -119.679
  C     -510.089    -108.054    -119.459
  N     -506.484    -110.959    -121.470
  C     -507.850    -110.968    -121.681
  N     -508.320    -111.856    -122.576
  N     -508.678    -110.169    -121.059
  C     -508.058    -109.309    -120.211
  C     -506.720    -109.207    -119.912
  C     -505.812    -110.112    -120.600
  O     -504.594    -110.159    -120.443
  N     -506.485    -108.223    -118.984
  C     -507.679    -107.742    -118.715
  N     -508.664    -108.333    -119.454
  O     -511.898    -107.296    -113.716
  O     -510.805    -109.607    -113.733
  H     -510.295    -110.650    -119.988
  H     -512.245    -107.688    -112.896
  H     -505.885    -111.603    -121.971
  H     -507.895    -106.962    -117.992
  H     -510.378    -107.866    -120.506
  H     -510.428    -109.551    -117.915
  H     -507.728    -112.462    -123.132
  H     -512.794    -108.961    -117.748
  H     -509.311    -111.851    -122.779
  H     -512.327    -106.278    -118.359
  H     -510.729    -106.201    -116.274
  H     -512.410    -106.617    -116.024
  P     -514.016    -109.371    -120.050
  C     -516.013    -107.770    -120.514
  O     -515.068    -108.678    -121.040
  O     -514.847    -109.550    -118.694
  O     -513.434    -110.659    -120.530
  H     -515.245    -110.444    -118.654
  H     -515.700    -106.753    -120.753
  H     -516.119    -107.873    -119.425
  H     -516.983    -107.960    -120.973
  H     -508.194    -106.545    -112.705
  H     -509.034    -107.970    -112.144
  H     -509.900    -106.465    -112.339

 3  4  5  6  7  8  9  10  11  12  23  26  30  31 0
 6-311+G(2d,p)
 ****
 33  35  36  37  38 0
 6-311+G(2d,p)
 ****
 1  2  13  14  15  16  17  18  19  20  21  22  24  25 0
 3-21G
 ****
 27  28  29  32  34  39  40  41  42  43  44  45  46  47  48  49 0
 3-21G
 ****


