%nproc=1
%NoSave
%Mem=1900MB
#P OB98/GEN NMR

erre ene a

0 1
  C     -463.469    -934.844     215.100
  O     -464.081    -936.071     215.414
  H     -462.469    -934.827     215.525
  H     -464.050    -934.020     215.510
  H     -463.381    -934.721     214.006
  P     -465.438    -936.489     214.672
  C     -466.808    -936.330     216.850
  O     -466.646    -935.847     215.531
  C     -468.236    -936.058     217.352
  O     -469.176    -936.662     216.412
  C     -468.537    -936.655     218.739
  O     -469.494    -935.801     219.369
  C     -469.166    -937.987     218.374
  O     -469.883    -938.536     219.463
  C     -469.987    -937.592     217.151
  N     -470.399    -938.748     216.345
  C     -471.582    -939.375     216.705
  O     -472.256    -939.026     217.680
  N     -471.933    -940.465     215.973
  C     -471.220    -940.985     214.921
  O     -471.576    -941.983     214.309
  C     -469.941    -940.314     214.616
  C     -469.614    -939.213     215.322
  O     -465.590    -937.944     214.376
  O     -465.444    -935.601     213.338
  H     -470.195    -939.448     219.241
  H     -465.910    -936.072     212.620
  H     -472.799    -940.929     216.209
  H     -469.350    -940.713     213.814
  H     -468.696    -938.701     215.109
  H     -470.906    -937.064     217.457
  H     -468.389    -938.723     218.095
  H     -467.646    -936.759     219.365
  H     -468.420    -934.979     217.329
  H     -466.089    -935.812     217.499
  H     -466.605    -937.411     216.877
  P     -469.115    -934.843     220.599
  C     -469.709    -936.348     222.613
  O     -468.662    -935.760     221.846
  O     -470.163    -933.828     220.935
  O     -467.755    -934.120     220.140
  H     -467.685    -933.247     220.577
  H     -469.287    -936.929     223.406
  H     -470.300    -936.980     221.984
  H     -470.326    -935.577     223.025

 6  7  8  9  10  11  12  13  14  15  16  26  31  32  33  34  35 0
 6-311+G(2d,p)
 ****
 36  37 0
 6-311+G(2d,p)
 ****
 1  2  3  4  5  17  18  19  20  21  22  23  24  25 0
 3-21G
 ****
 27  28  29  30  38  39  40  41  42  43  44  45 0
 3-21G
 ****


