%nproc=1
%NoSave
%Mem=1900MB
#P OB98/GEN NMR

erre ene a

0 1
  C       82.445    -494.620     254.884
  O       81.687    -494.482     256.091
  P       81.049    -495.813     256.719
  C       83.040    -496.627     258.187
  O       82.235    -496.843     257.037
  C       83.120    -497.902     259.023
  O       83.520    -499.032     258.219
  C       84.152    -497.826     260.139
  O       83.651    -497.075     261.230
  C       84.384    -499.299     260.461
  O       83.483    -499.772     261.473
  C       84.109    -499.996     259.106
  N       85.302    -500.590     258.528
  C       85.427    -501.980     258.664
  O       84.565    -502.619     259.267
  N       86.532    -502.594     258.137
  C       87.453    -501.884     257.549
  N       88.525    -502.551     257.053
  C       87.372    -500.418     257.408
  C       86.284    -499.839     257.918
  O       80.295    -496.481     255.479
  O       80.115    -495.554     257.857
  H       82.582    -499.583     261.131
  H       79.503    -496.953     255.778
  H       88.163    -499.869     256.922
  H       86.138    -498.764     257.862
  H       83.369    -500.795     259.238
  H       85.404    -499.467     260.836
  H       85.083    -497.376     259.759
  H       82.127    -498.105     259.445
  H       88.546    -503.557     257.169
  H       82.630    -495.809     258.788
  H       89.298    -502.097     256.584
  H       84.042    -496.304     257.861
  P       84.689    -496.590     262.344
  C       85.112    -494.288     261.286
  O       85.658    -495.552     261.585
  O       85.641    -497.875     262.494
  O       84.136    -496.147     263.655
  H       86.272    -497.738     263.226
  H       85.917    -493.618     260.969
  H       84.626    -493.858     262.172
  H       84.391    -494.377     260.468
  H       82.809    -493.661     254.580
  H       81.821    -495.025     254.115
  H       83.272    -495.277     255.055

 3  4  5  6  7  8  9  10  11  12  13  21  23  27  28  29  30  32 0
 6-311+G(2d,p)
 ****
 34  35 0
 6-311+G(2d,p)
 ****
 1  2  14  15  16  17  18  19  20  22  24  25  26 0
 3-21G
 ****
 31  33  36  37  38  39  40  41  42  43  44  45  46 0
 3-21G
 ****


