%nproc=1
%NoSave
%Mem=1900MB
#P OB98/GEN NMR

erre ene a

0 1
  C      118.023    -681.771    -271.546
  O      119.167    -680.925    -271.701
  P      119.132    -679.562    -272.548
  C      116.914    -678.261    -272.322
  O      118.216    -678.486    -271.791
  C      115.967    -677.672    -271.272
  O      115.710    -678.622    -270.224
  C      116.491    -676.422    -270.569
  O      116.396    -675.286    -271.408
  C      115.599    -676.386    -269.333
  O      114.330    -675.780    -269.627
  C      115.431    -677.886    -269.014
  N      116.282    -678.321    -267.917
  C      115.658    -678.484    -266.671
  O      114.470    -678.210    -266.527
  N      116.413    -678.929    -265.614
  C      117.685    -679.123    -265.768
  N      118.385    -679.572    -264.686
  C      118.402    -678.877    -267.036
  C      117.640    -678.483    -268.051
  O      118.781    -679.751    -273.991
  O      120.609    -678.951    -272.410
  H      113.814    -675.799    -268.798
  H      120.825    -678.452    -273.220
  H      119.467    -679.024    -267.112
  H      118.083    -678.289    -269.028
  H      114.387    -678.108    -268.762
  H      116.046    -675.816    -268.510
  H      117.534    -676.582    -270.265
  H      115.008    -677.454    -271.772
  H      117.865    -679.737    -263.828
  H      116.514    -679.225    -272.668
  H      119.373    -679.755    -264.697
  H      116.995    -677.587    -273.183
  P      117.696    -674.399    -271.703
  C      119.898    -675.335    -272.638
  O      118.515    -675.123    -272.874
  O      118.499    -674.014    -270.505
  O      117.108    -673.094    -272.441
  H      117.674    -672.329    -272.222
  H      120.240    -676.157    -273.273
  H      120.082    -675.603    -271.592
  H      120.449    -674.428    -272.889
  H      118.284    -682.617    -270.944
  H      117.694    -682.105    -272.508
  H      117.236    -681.224    -271.070

 3  4  5  6  7  8  9  10  11  12  13  23  27  28  29  30  32 0
 6-311+G(2d,p)
 ****
 34  35 0
 6-311+G(2d,p)
 ****
 1  2  14  15  16  17  18  19  20  21  22  24  25  26 0
 3-21G
 ****
 31  33  36  37  38  39  40  41  42  43  44  45  46 0
 3-21G
 ****


