%nproc=1
%NoSave
%Mem=1900MB
#P OB98/GEN NMR

erre ene a

0 1
  C      772.982    1170.682     252.632
  O      773.900    1170.837     251.564
  H      772.420    1171.612     252.753
  H      773.520    1170.472     253.554
  H      772.271    1169.869     252.420
  P      774.684    1169.515     251.093
  C      777.055    1169.823     252.180
  O      776.240    1169.944     251.027
  C      777.703    1171.168     252.514
  O      778.453    1171.647     251.366
  C      776.680    1172.272     252.877
  O      777.240    1173.086     253.909
  C      776.553    1173.080     251.587
  O      776.106    1174.411     251.837
  C      777.970    1172.947     250.992
  N      777.995    1173.162     249.550
  C      779.131    1173.767     249.021
  O      780.045    1174.119     249.756
  N      779.171    1174.011     247.669
  C      778.156    1173.731     246.932
  N      778.257    1174.001     245.593
  C      776.912    1173.132     247.459
  C      776.894    1172.849     248.767
  O      774.257    1169.413     249.559
  O      774.392    1168.296     251.910
  H      776.691    1174.808     252.527
  H      774.232    1170.264     249.089
  H      776.071    1172.913     246.801
  H      776.035    1172.426     249.237
  H      778.647    1173.697     251.467
  H      775.823    1172.596     250.926
  H      775.715    1171.879     253.198
  H      778.423    1171.028     253.329
  H      779.112    1174.428     245.270
  H      777.850    1169.088     252.009
  H      777.510    1173.872     244.948
  H      776.435    1169.485     253.011
  P      776.866    1172.790     255.433
  C      776.739    1175.228     256.268
  O      777.422    1173.981     256.352
  O      777.166    1171.415     255.926
  O      775.263    1173.057     255.456
  H      774.862    1172.385     256.049
  H      777.203    1175.934     256.924
  H      775.717    1175.095     256.554
  H      776.784    1175.592     255.263

 6  7  8  9  10  11  12  13  14  15  16  26  30  31  32  33  35 0
 6-311+G(2d,p)
 ****
 37  38 0
 6-311+G(2d,p)
 ****
 1  2  3  4  5  17  18  19  20  21  22  23  24  25 0
 3-21G
 ****
 27  28  29  34  36  39  40  41  42  43  44  45  46 0
 3-21G
 ****


