%nproc=1
%NoSave
%Mem=1900MB
#P OB98/GEN NMR

erre ene a

0 1
  C     -635.563     269.061    -210.639
  O     -634.572     270.047    -210.871
  H     -635.083     268.084    -210.616
  H     -636.298     269.076    -211.450
  H     -636.059     269.241    -209.679
  P     -635.040     271.582    -210.766
  C     -633.798     272.085    -208.507
  O     -635.024     271.930    -209.199
  C     -633.571     270.924    -207.538
  O     -633.553     269.685    -208.297
  C     -632.252     271.013    -206.761
  O     -632.468     270.487    -205.451
  C     -631.329     270.086    -207.532
  O     -630.250     269.614    -206.725
  C     -632.309     269.002    -208.004
  N     -631.810     268.269    -209.169
  C     -631.046     267.130    -208.906
  O     -630.809     266.796    -207.744
  N     -630.530     266.418    -209.957
  C     -630.708     266.847    -211.172
  N     -630.156     266.114    -212.180
  C     -631.474     268.071    -211.494
  C     -631.997     268.721    -210.453
  O     -636.599     271.472    -211.114
  O     -634.277     272.519    -211.636
  H     -630.626     269.131    -205.959
  H     -637.044     270.731    -210.668
  H     -631.589     268.394    -212.520
  H     -632.585     269.618    -210.598
  H     -632.512     268.291    -207.200
  H     -630.900     270.615    -208.396
  H     -631.874     272.031    -206.690
  H     -634.426     270.865    -206.858
  H     -629.621     265.294    -211.907
  H     -633.796     273.029    -207.945
  H     -630.182     266.379    -213.144
  H     -632.992     272.132    -209.248
  P     -632.990     271.455    -204.291
  C     -635.046     270.189    -203.354
  O     -634.579     271.285    -204.130
  O     -632.503     272.862    -204.349
  O     -632.438     270.733    -202.959
  H     -632.117     271.428    -202.357
  H     -636.116     270.198    -203.332
  H     -634.668     270.271    -202.357
  H     -634.706     269.273    -203.790

 6  7  8  9  10  11  12  13  14  15  16  26  30  31  32  33  35 0
 6-311+G(2d,p)
 ****
 37  38 0
 6-311+G(2d,p)
 ****
 1  2  3  4  5  17  18  19  20  21  22  23  24  25 0
 3-21G
 ****
 27  28  29  34  36  39  40  41  42  43  44  45  46 0
 3-21G
 ****


