%nproc=1
%NoSave
%Mem=1900MB
#P OB98/GEN NMR

erre ene a

0 1
  C     -593.577     -85.347    -266.393
  O     -592.565     -84.855    -267.247
  P     -593.024     -83.956    -268.503
  C     -591.971     -81.704    -267.745
  O     -593.162     -82.455    -267.954
  C     -592.204     -80.212    -267.977
  O     -592.361     -79.979    -269.398
  C     -593.441     -79.654    -267.267
  O     -593.129     -78.334    -266.824
  C     -594.472     -79.572    -268.371
  O     -595.480     -78.601    -268.083
  C     -593.593     -79.252    -269.587
  N     -594.238     -79.613    -270.849
  C     -595.042     -78.639    -271.447
  O     -595.239     -77.565    -270.877
  N     -595.633     -78.920    -272.650
  C     -595.529     -80.108    -273.156
  N     -596.134     -80.342    -274.354
  C     -594.792     -81.205    -272.491
  C     -594.161     -80.883    -271.363
  O     -594.537     -84.411    -268.731
  O     -592.187     -84.131    -269.727
  H     -595.977     -78.429    -268.915
  H     -594.777     -84.363    -269.676
  H     -594.766     -82.188    -272.938
  H     -593.580     -81.613    -270.823
  H     -593.346     -78.183    -269.615
  H     -594.963     -80.547    -268.498
  H     -593.751     -80.266    -266.415
  H     -591.306     -79.671    -267.659
  H     -596.644     -79.577    -274.781
  H     -591.207     -82.047    -268.450
  H     -596.105     -81.235    -274.821
  H     -591.604     -81.887    -266.729
  P     -593.658     -77.890    -265.376
  C     -591.403     -77.996    -264.154
  O     -592.663     -78.602    -264.337
  O     -594.978     -78.795    -265.226
  O     -593.964     -76.448    -265.144
  H     -595.434     -78.570    -264.399
  H     -590.889     -78.498    -263.331
  H     -591.517     -76.941    -263.907
  H     -590.802     -78.107    -265.063
  H     -593.133     -85.923    -265.608
  H     -594.247     -85.965    -266.953
  H     -594.118     -84.526    -265.971

 3  4  5  6  7  8  9  10  11  12  13  21  23  27  28  29  30  32 0
 6-311+G(2d,p)
 ****
 34  35 0
 6-311+G(2d,p)
 ****
 1  2  14  15  16  17  18  19  20  22  24  25  26 0
 3-21G
 ****
 31  33  36  37  38  39  40  41  42  43  44  45  46 0
 3-21G
 ****


