%nproc=1
%NoSave
%Mem=1900MB
#P OB98/GEN NMR

erre ene a

0 1
  C     -248.921    -277.973    -361.609
  O     -248.036    -279.087    -361.483
  P     -248.640    -280.552    -361.254
  C     -247.675    -281.604    -363.413
  O     -248.845    -281.269    -362.672
  C     -247.871    -282.956    -364.108
  O     -248.216    -283.995    -363.162
  C     -249.014    -282.950    -365.113
  O     -248.819    -282.191    -366.292
  C     -249.304    -284.432    -365.281
  O     -248.419    -285.041    -366.218
  C     -249.034    -284.965    -363.852
  N     -250.267    -285.240    -363.108
  C     -250.648    -286.578    -363.032
  O     -250.030    -287.488    -363.581
  N     -251.796    -286.827    -362.324
  C     -252.596    -285.892    -361.736
  O     -253.627    -286.176    -361.133
  C     -252.158    -284.497    -361.875
  C     -251.033    -284.236    -362.548
  O     -249.803    -280.635    -360.324
  O     -247.388    -281.355    -360.645
  H     -248.425    -285.999    -366.049
  H     -247.725    -281.931    -359.932
  H     -252.079    -287.792    -362.251
  H     -252.769    -283.731    -361.422
  H     -250.689    -283.214    -362.651
  H     -248.458    -285.895    -363.894
  H     -250.323    -284.606    -365.648
  H     -249.889    -282.511    -364.616
  H     -246.922    -283.243    -364.577
  H     -246.813    -281.646    -362.741
  H     -247.472    -280.807    -364.136
  P     -250.024    -281.730    -367.245
  C     -249.896    -279.143    -367.352
  O     -250.507    -280.278    -366.779
  O     -251.077    -282.737    -367.559
  O     -249.234    -281.388    -368.606
  H     -249.813    -281.600    -369.357
  H     -250.335    -278.240    -366.903
  H     -250.066    -279.114    -368.429
  H     -248.822    -279.144    -367.140
  H     -248.351    -277.079    -361.756
  H     -249.507    -277.880    -360.718
  H     -249.568    -278.125    -362.447

 3  4  5  6  7  8  9  10  11  12  13  23  28  29  30  31  32 0
 6-311+G(2d,p)
 ****
 33  34 0
 6-311+G(2d,p)
 ****
 1  2  14  15  16  17  18  19  20  21  22  24  25  26  27 0
 3-21G
 ****
 35  36  37  38  39  40  41  42  43  44  45 0
 3-21G
 ****


