%nproc=1
%NoSave
%Mem=1900MB
#P OB98/GEN NMR

erre ene a

0 1
  C      -93.722    -432.693    -228.804
  O      -94.832    -433.529    -228.545
  H      -92.825    -433.173    -228.407
  H      -93.855    -431.729    -228.308
  H      -93.598    -432.548    -229.879
  P      -96.267    -433.026    -229.071
  C      -96.866    -432.142    -226.699
  O      -96.680    -431.832    -228.073
  C      -96.768    -430.871    -225.849
  O      -97.427    -431.096    -224.580
  C      -95.323    -430.452    -225.552
  O      -95.205    -429.035    -225.705
  C      -95.100    -430.860    -224.110
  O      -94.099    -430.071    -223.471
  C      -96.514    -430.739    -223.525
  N      -96.695    -431.596    -222.355
  C      -96.249    -431.091    -221.126
  O      -95.725    -429.976    -221.067
  N      -96.364    -431.874    -220.007
  C      -96.817    -433.083    -220.111
  N      -96.886    -433.818    -218.969
  C      -97.250    -433.678    -221.392
  C      -97.167    -432.881    -222.459
  O      -97.240    -434.223    -228.654
  O      -96.326    -432.672    -230.520
  H      -93.953    -430.441    -222.571
  H      -98.117    -434.147    -229.101
  H      -97.609    -434.694    -221.430
  H      -97.462    -433.235    -223.442
  H      -96.721    -429.700    -223.229
  H      -94.775    -431.905    -224.076
  H      -94.596    -430.935    -226.209
  H      -97.319    -430.069    -226.354
  H      -96.566    -433.385    -218.109
  H      -96.096    -432.856    -226.386
  H      -97.193    -434.782    -218.937
  H      -97.854    -432.593    -226.564
  P      -94.279    -428.527    -226.917
  C      -92.042    -428.732    -225.619
  O      -92.826    -429.181    -226.719
  O      -94.057    -426.975    -226.596
  O      -94.885    -428.751    -228.263
  H      -94.658    -426.427    -227.129
  H      -91.106    -429.251    -225.613
  H      -92.564    -428.927    -224.706
  H      -91.866    -427.681    -225.712

 6  7  8  9  10  11  12  13  14  15  16  26  30  31  32  33  35 0
 6-311+G(2d,p)
 ****
 37  38 0
 6-311+G(2d,p)
 ****
 1  2  3  4  5  17  18  19  20  21  22  23  24  25 0
 3-21G
 ****
 27  28  29  34  36  39  40  41  42  43  44  45  46 0
 3-21G
 ****


