%nproc=1
%NoSave
%Mem=1900MB
#P OB98/GEN NMR

erre ene a

0 1
  C     -209.419     432.921      91.619
  O     -210.265     431.808      91.407
  P     -210.113     430.487      92.301
  C     -211.690     431.336      94.156
  O     -210.356     430.965      93.814
  C     -211.905     431.260      95.668
  O     -212.093     429.894      96.085
  C     -210.735     431.788      96.489
  O     -210.733     433.205      96.495
  C     -211.018     431.149      97.842
  O     -211.983     431.907      98.587
  C     -211.597     429.776      97.435
  N     -210.622     428.700      97.563
  C     -210.002     428.583      98.812
  O     -210.263     429.379      99.714
  N     -209.065     427.594      98.992
  C     -208.757     426.812      98.000
  N     -207.813     425.861      98.237
  C     -209.367     426.925      96.662
  C     -210.279     427.882      96.514
  O     -208.867     429.701      92.070
  O     -211.450     429.669      91.967
  H     -211.606     432.803      98.687
  H     -211.407     429.260      91.068
  H     -209.071     426.258      95.865
  H     -210.773     428.035      95.562
  H     -212.464     429.525      98.061
  H     -210.116     431.080      98.458
  H     -209.794     431.399      96.087
  H     -212.820     431.818      95.909
  H     -207.398     425.838      99.160
  H     -212.377     430.645      93.658
  H     -207.475     425.226      97.532
  H     -211.892     432.347      93.784
  P     -209.417     433.996      96.948
  C     -207.834     433.123      95.129
  O     -208.146     433.126      96.508
  O     -209.407     434.462      98.368
  O     -209.368     435.241      95.944
  H     -209.151     436.049      96.449
  H     -206.799     432.794      95.003
  H     -207.943     434.125      94.698
  H     -208.494     432.427      94.606
  H     -209.673     433.699      90.929
  H     -208.401     432.629      91.468
  H     -209.543     433.278      92.620

 3  4  5  6  7  8  9  10  11  12  13  23  27  28  29  30  32 0
 6-311+G(2d,p)
 ****
 34  35 0
 6-311+G(2d,p)
 ****
 1  2  14  15  16  17  18  19  20  21  22  24  25  26 0
 3-21G
 ****
 31  33  36  37  38  39  40  41  42  43  44  45  46 0
 3-21G
 ****


