%nproc=1
%NoSave
%Mem=1900MB
#P OB98/GEN NMR

erre ene a

0 1
  C     -398.487    -790.591     177.930
  O     -398.921    -789.330     177.447
  P     -398.189    -788.612     176.207
  C     -396.727    -787.331     177.895
  O     -396.742    -788.172     176.750
  C     -395.697    -786.213     177.755
  O     -395.958    -785.172     178.733
  C     -394.232    -786.665     177.929
  O     -393.450    -785.848     177.049
  C     -393.963    -786.298     179.375
  O     -392.564    -786.209     179.669
  C     -394.747    -784.984     179.508
  N     -395.030    -784.644     180.894
  C     -394.563    -783.403     181.347
  O     -393.891    -782.688     180.607
  N     -394.839    -783.027     182.635
  C     -395.416    -783.861     183.444
  N     -395.666    -783.429     184.721
  C     -395.816    -785.230     183.049
  C     -395.602    -785.551     181.761
  O     -398.969    -787.527     175.552
  O     -397.836    -789.831     175.228
  H     -392.468    -786.039     180.635
  H     -398.639    -790.122     174.729
  H     -396.248    -785.909     183.763
  H     -395.857    -786.523     181.385
  H     -394.197    -784.155     179.043
  H     -394.391    -787.060     180.034
  H     -394.071    -787.724     177.717
  H     -395.830    -785.759     176.754
  H     -395.398    -782.476     184.937
  H     -396.467    -787.945     178.762
  H     -396.185    -783.968     185.388
  H     -397.732    -786.916     178.067
  P     -392.230    -786.453     176.216
  C     -390.474    -785.717     177.934
  O     -391.070    -786.812     177.272
  O     -391.783    -785.631     175.046
  O     -392.753    -787.898     175.741
  H     -392.182    -788.226     175.021
  H     -389.914    -786.080     178.805
  H     -391.229    -785.003     178.263
  H     -389.778    -785.202     177.257
  H     -399.103    -790.889     178.752
  H     -397.470    -790.518     178.254
  H     -398.561    -791.317     177.148

 3  4  5  6  7  8  9  10  11  12  13  23  27  28  29  30  32 0
 6-311+G(2d,p)
 ****
 34  35 0
 6-311+G(2d,p)
 ****
 1  2  14  15  16  17  18  19  20  21  22  24  25  26 0
 3-21G
 ****
 31  33  36  37  38  39  40  41  42  43  44  45  46 0
 3-21G
 ****


