%nproc=1
%NoSave
%Mem=1900MB
#P OB98/GEN NMR

erre ene a

0 1
  C       38.438      55.731      58.595
  O       39.447      55.191      57.760
  P       40.684      56.123      57.356
  C       39.683      56.799      55.053
  O       40.144      57.227      56.325
  C       40.867      56.472      54.140
  O       40.371      56.123      52.813
  C       41.860      57.631      53.965
  O       43.169      57.060      53.823
  C       41.424      58.239      52.646
  O       42.430      59.035      52.038
  C       41.059      56.969      51.871
  N       40.241      57.239      50.690
  C       40.752      56.850      49.457
  O       41.842      56.299      49.305
  N       39.989      57.173      48.366
  C       38.840      57.907      48.378
  O       38.265      58.263      47.356
  C       38.347      58.291      49.710
  C       39.057      57.945      50.787
  O       41.585      55.163      56.447
  O       41.449      56.679      58.509
  H       42.084      59.337      51.178
  H       42.331      54.807      56.964
  H       40.339      56.888      47.465
  H       37.426      58.857      49.759
  H       38.728      58.233      51.780
  H       41.970      56.437      51.568
  H       40.546      58.874      52.810
  H       41.845      58.349      54.790
  H       41.380      55.587      54.537
  H       39.091      57.595      54.599
  H       39.035      55.924      55.172
  P       44.338      57.618      54.772
  C       44.818      59.572      53.104
  O       44.515      59.170      54.422
  O       45.620      56.924      54.106
  O       44.156      57.276      56.215
  H       45.602      56.960      53.135
  H       44.346      58.918      52.365
  H       45.901      59.554      52.960
  H       44.458      60.592      52.952
  H       37.687      54.990      58.772
  H       37.996      56.580      58.117
  H       38.869      56.031      59.527

 3  4  5  6  7  8  9  10  11  12  13  23  28  29  30  31  32 0
 6-311+G(2d,p)
 ****
 33  34 0
 6-311+G(2d,p)
 ****
 1  2  14  15  16  17  18  19  20  21  22  24  25  26 0
 3-21G
 ****
 27  35  36  37  38  39  40  41  42  43  44  45 0
 3-21G
 ****


