%nproc=1
%NoSave
%Mem=1900MB
#P OB98/GEN NMR

erre ene a

0 1
  C       95.920     -11.731     -12.218
  O       95.300     -12.234     -13.384
  H       96.261     -12.574     -11.611
  H       95.217     -11.137     -11.627
  H       96.787     -11.121     -12.487
  P       94.489     -11.206     -14.313
  C       96.060     -11.385     -16.355
  O       95.584     -10.558     -15.295
  C       97.479     -10.985     -16.768
  O       98.373     -11.095     -15.641
  C       98.081     -11.880     -17.839
  O       97.478     -11.743     -19.110
  C       99.573     -11.620     -17.684
  O      100.031     -10.485     -18.412
  C       99.692     -11.349     -16.164
  N      100.355     -12.444     -15.464
  C      101.623     -12.778     -15.922
  O      102.173     -12.216     -16.872
  N      102.239     -13.814     -15.278
  C      101.696     -14.567     -14.277
  O      102.283     -15.514     -13.765
  C      100.340     -14.184     -13.850
  C       99.738     -13.155     -14.454
  O       93.652     -10.195     -13.587
  O       93.647     -12.156     -15.286
  H       99.597      -9.701     -18.022
  H       92.914     -11.659     -15.723
  H      103.164     -14.064     -15.590
  H       99.877     -14.759     -13.059
  H       98.737     -12.853     -14.158
  H      100.277     -10.437     -15.987
  H      100.165     -12.475     -18.020
  H       97.919     -12.922     -17.541
  H       97.464      -9.938     -17.088
  H       95.387     -11.250     -17.208
  H       96.032     -12.434     -16.045
  P       96.340     -12.727     -19.651
  C       94.797     -10.890     -20.650
  O       94.949     -11.918     -19.679
  O       96.348     -14.122     -19.115
  O       96.715     -12.810     -21.219
  H       96.493     -13.709     -21.525
  H       93.830     -10.444     -20.549
  H       94.897     -11.308     -21.630
  H       95.550     -10.145     -20.501

 6  7  8  9  10  11  12  13  14  15  16  26  31  32  33  34  35 0
 6-311+G(2d,p)
 ****
 36  37 0
 6-311+G(2d,p)
 ****
 1  2  3  4  5  17  18  19  20  21  22  23  24  25 0
 3-21G
 ****
 27  28  29  30  38  39  40  41  42  43  44  45 0
 3-21G
 ****


