%nproc=1
%NoSave
%Mem=1900MB
#P OB98/GEN NMR

erre ene a

0 1
  C      -55.993     218.758     -13.586
  O      -56.396     219.843     -14.422
  P      -55.332     220.991     -14.775
  C      -55.488     220.644     -17.317
  O      -55.652     221.559     -16.242
  C      -55.489     221.342     -18.684
  O      -56.824     221.787     -19.037
  C      -54.564     222.565     -18.770
  O      -54.020     222.586     -20.094
  C      -55.527     223.715     -18.565
  O      -54.999     224.954     -19.009
  C      -56.744     223.196     -19.338
  N      -57.970     223.894     -18.985
  C      -58.248     225.080     -19.665
  O      -57.423     225.549     -20.449
  N      -59.440     225.716     -19.413
  C      -60.207     225.287     -18.460
  N      -61.387     225.932     -18.255
  C      -59.855     224.141     -17.599
  C      -58.748     223.484     -17.931
  O      -53.903     220.634     -14.536
  O      -55.787     222.201     -13.824
  H      -54.857     224.913     -19.978
  H      -54.991     222.691     -13.537
  H      -60.486     223.869     -16.764
  H      -58.409     222.627     -17.367
  H      -56.589     223.289     -20.421
  H      -55.764     223.812     -17.499
  H      -53.742     222.539     -18.047
  H      -55.185     220.600     -19.438
  H      -61.603     226.731     -18.837
  H      -56.297     219.910     -17.288
  H      -62.062     225.624     -17.565
  H      -54.562     220.077     -17.163
  P      -52.544     222.001     -20.341
  C      -53.421     220.149     -21.939
  O      -52.544     221.236     -21.748
  O      -52.503     220.777     -19.300
  O      -51.412     222.938     -20.073
  H      -51.574     220.595     -19.064
  H      -53.493     219.938     -23.008
  H      -54.425     220.376     -21.565
  H      -53.031     219.262     -21.431
  H      -56.815     218.087     -13.451
  H      -55.682     219.137     -12.635
  H      -55.179     218.237     -14.045

 3  4  5  6  7  8  9  10  11  12  13  23  27  28  29  30  32 0
 6-311+G(2d,p)
 ****
 34  35 0
 6-311+G(2d,p)
 ****
 1  2  14  15  16  17  18  19  20  21  22  24  25  26 0
 3-21G
 ****
 31  33  36  37  38  39  40  41  42  43  44  45  46 0
 3-21G
 ****


