%nproc=1
%NoSave
%Mem=1900MB
#P OB98/GEN NMR

erre ene a

0 1
  C      -68.094     111.855      86.237
  O      -67.615     111.336      87.460
  H      -68.728     112.720      86.450
  H      -68.691     111.109      85.706
  H      -67.260     112.182      85.611
  P      -66.751     109.984      87.426
  C      -64.606     111.319      86.853
  O      -65.527     110.322      86.439
  C      -63.274     111.140      86.128
  O      -62.406     112.270      86.355
  C      -62.460     109.930      86.573
  O      -62.974     108.698      86.099
  C      -61.115     110.276      85.955
  O      -61.157     110.021      84.540
  C      -61.035     111.795      86.241
  N      -60.284     112.109      87.454
  C      -59.536     113.293      87.441
  O      -59.527     114.016      86.446
  N      -58.782     113.613      88.544
  C      -58.761     112.812      89.563
  N      -57.961     113.153      90.611
  C      -59.546     111.565      89.627
  C      -60.272     111.274      88.550
  O      -67.499     108.728      87.110
  O      -66.016     109.946      88.847
  H      -60.302     110.312      84.172
  H      -65.476     109.119      88.881
  H      -59.486     110.929      90.498
  H      -60.863     110.365      88.514
  H      -60.580     112.326      85.397
  H      -60.287     109.692      86.367
  H      -62.349     109.914      87.663
  H      -63.486     111.109      85.052
  H      -57.405     113.992      90.515
  H      -64.478     111.235      87.936
  H      -57.677     112.466      91.302
  H      -64.996     112.313      86.618
  P      -62.382     107.344      86.729
  C      -63.970     107.395      88.794
  O      -62.637     107.423      88.311
  O      -60.803     107.548      86.589
  O      -62.857     106.073      86.097
  H      -60.467     107.141      85.766
  H      -63.964     107.456      89.862
  H      -64.440     106.483      88.491
  H      -64.512     108.226      88.393

 6  7  8  9  10  11  12  13  14  15  16  26  30  31  32  33  35 0
 6-311+G(2d,p)
 ****
 37  38 0
 6-311+G(2d,p)
 ****
 1  2  3  4  5  17  18  19  20  21  22  23  24  25 0
 3-21G
 ****
 27  28  29  34  36  39  40  41  42  43  44  45  46 0
 3-21G
 ****


