%nproc=1
%NoSave
%Mem=1900MB
#P OB98/GEN NMR

erre ene a

0 1
  C     -350.382    -473.006     228.582
  O     -350.014    -472.282     227.424
  H     -349.727    -472.708     229.404
  H     -350.276    -474.079     228.422
  H     -351.415    -472.774     228.858
  P     -350.658    -472.724     226.019
  C     -352.053    -470.623     225.458
  O     -352.076    -471.965     225.936
  C     -353.251    -470.349     224.545
  O     -353.161    -471.157     223.353
  C     -354.593    -470.701     225.164
  O     -354.979    -469.858     226.228
  C     -355.491    -470.838     223.941
  O     -356.049    -469.604     223.513
  C     -354.501    -471.365     222.873
  N     -354.753    -472.761     222.543
  C     -355.948    -473.025     221.884
  O     -356.784    -472.159     221.610
  N     -356.188    -474.341     221.587
  C     -355.381    -475.395     221.916
  O     -355.682    -476.557     221.660
  C     -354.145    -475.056     222.639
  C     -353.884    -473.774     222.910
  O     -350.747    -474.203     225.784
  O     -349.774    -471.953     224.934
  H     -356.596    -469.792     222.729
  H     -349.892    -472.341     224.034
  H     -357.043    -474.552     221.104
  H     -353.490    -475.868     222.920
  H     -352.979    -473.498     223.438
  H     -354.598    -470.779     221.950
  H     -356.323    -471.516     224.138
  H     -354.509    -471.709     225.595
  H     -353.218    -469.291     224.243
  H     -351.126    -470.483     224.892
  H     -352.051    -469.927     226.305
  P     -355.891    -470.342     227.442
  C     -353.880    -471.421     228.686
  O     -355.181    -471.612     228.133
  O     -357.369    -470.401     227.195
  O     -355.632    -469.182     228.526
  H     -356.463    -469.048     229.024
  H     -353.533    -472.341     229.108
  H     -353.923    -470.672     229.449
  H     -353.208    -471.107     227.915

 6  7  8  9  10  11  12  13  14  15  16  26  31  32  33  34  35 0
 6-311+G(2d,p)
 ****
 36  37 0
 6-311+G(2d,p)
 ****
 1  2  3  4  5  17  18  19  20  21  22  23  24  25 0
 3-21G
 ****
 27  28  29  30  38  39  40  41  42  43  44  45 0
 3-21G
 ****


