%nproc=1
%NoSave
%Mem=1900MB
#P OB98/GEN NMR

erre ene a

0 1
  C     -277.302     -19.205     -30.186
  O     -278.039     -20.167     -30.917
  H     -277.018     -18.391     -30.861
  H     -276.392     -19.659     -29.779
  H     -277.909     -18.797     -29.373
  P     -278.590     -21.430     -30.096
  C     -277.559     -23.793     -29.724
  O     -277.328     -22.393     -29.852
  C     -276.231     -24.546     -29.795
  O     -275.481     -24.314     -28.578
  C     -276.376     -26.057     -29.904
  O     -276.678     -26.470     -31.226
  C     -275.008     -26.523     -29.423
  O     -274.036     -26.481     -30.474
  C     -274.661     -25.481     -28.350
  N     -273.200     -29.021     -24.982
  C     -272.758     -28.718     -26.224
  N     -273.190     -27.742     -27.054
  C     -274.178     -27.036     -26.471
  C     -274.734     -27.231     -25.219
  C     -274.201     -28.280     -24.451
  N     -274.675     -28.613     -23.201
  N     -275.761     -26.330     -24.997
  C     -275.813     -25.599     -26.095
  N     -274.873     -25.984     -27.008
  O     -279.458     -22.214     -31.191
  O     -279.385     -21.103     -28.878
  H     -274.379     -27.043     -31.196
  H     -280.396     -21.950     -31.113
  H     -271.954     -29.345     -26.602
  H     -276.519     -24.793     -26.275
  H     -273.615     -25.155     -28.414
  H     -275.040     -27.551     -29.053
  H     -277.137     -26.422     -29.201
  H     -275.649     -24.145     -30.633
  H     -278.207     -24.126     -30.539
  H     -278.061     -23.982     -28.768
  H     -274.256     -29.392     -22.717
  H     -275.488     -28.136     -22.845
  P     -277.135     -27.985     -31.472
  C     -275.911     -30.154     -32.218
  O     -275.811     -28.884     -31.592
  O     -277.714     -27.953     -32.966
  O     -278.145     -28.496     -30.493
  H     -278.689     -27.913     -32.953
  H     -274.951     -30.627     -32.220
  H     -276.250     -30.029     -33.225
  H     -276.608     -30.763     -31.680

 6  7  8  9  10  11  12  13  14  15  25  28  32  33  34  35 0
 6-311+G(2d,p)
 ****
 36  37  40 0
 6-311+G(2d,p)
 ****
 1  2  3  4  5  16  17  18  19  20  21  22  23  24 0
 3-21G
 ****
 26  27  29  30  31  38  39 41  42  43  44  45  46  47  48 0
 3-21G
 ****


