%nproc=1
%NoSave
%Mem=1900MB
#P OB98/GEN NMR

erre ene a

0 1
  C       39.304    -173.793    -243.947
  O       38.712    -172.516    -244.072
  H       40.311    -173.754    -244.368
  H       38.720    -174.539    -244.496
  H       39.371    -174.073    -242.893
  P       37.198    -172.371    -243.561
  C       37.725    -169.948    -242.857
  O       36.895    -170.795    -243.642
  C       37.913    -168.597    -243.547
  O       38.838    -168.769    -244.653
  C       36.616    -168.012    -244.119
  O       36.642    -166.590    -243.981
  C       36.695    -168.371    -245.594
  O       35.893    -167.516    -246.403
  C       38.199    -168.271    -245.841
  N       39.696    -167.908    -250.693
  C       39.531    -166.982    -249.726
  N       39.148    -167.169    -248.446
  C       38.987    -168.481    -248.188
  C       39.119    -169.539    -249.069
  C       39.481    -169.212    -250.387
  N       39.620    -170.143    -251.390
  N       38.823    -170.732    -248.438
  C       38.526    -170.400    -247.192
  N       38.595    -169.047    -247.004
  O       36.898    -173.008    -242.246
  O       36.370    -172.945    -244.805
  H       35.983    -167.800    -247.338
  H       36.695    -172.576    -245.651
  H       39.720    -165.950    -250.021
  H       38.244    -171.092    -246.406
  H       38.530    -167.237    -246.010
  H       36.345    -169.399    -245.745
  H       35.720    -168.415    -243.646
  H       38.384    -167.902    -242.843
  H       38.703    -170.419    -242.699
  H       39.886    -169.820    -252.307
  H       39.472    -171.120    -251.181
  H       37.243    -169.814    -241.881
  P       35.327    -165.834    -243.460
  C       36.402    -164.096    -241.890
  O       35.711    -164.313    -243.112
  O       34.548    -166.545    -242.406
  O       34.462    -165.670    -244.802
  H       33.523    -165.858    -244.600
  H       36.600    -163.051    -241.773
  H       37.326    -164.635    -241.902
  H       35.800    -164.439    -241.074

 6  7  8  9  10  11  12  13  14  15  25  28  32  33  34  35 0
 6-311+G(2d,p)
 ****
 36  39  40 0
 6-311+G(2d,p)
 ****
 1  2  3  4  5  16  17  18  19  20  21  22  23  24 0
 3-21G
 ****
 26  27  29  30  31  37  38  41  42  43  44  45  46  47 0
 3-21G
 ****
 48 0
 3-21G
 ****


