%nproc=1
%NoSave
%Mem=1900MB
#P OB98/GEN NMR

erre ene a

0 1
  C       71.967     -33.482     206.413
  O       71.093     -33.782     207.502
  P       71.533     -34.876     208.588
  C       69.195     -35.798     209.206
  O       70.345     -35.081     209.646
  C       67.924     -35.098     209.695
  O       67.573     -33.980     208.844
  C       66.697     -36.008     209.661
  O       66.664     -37.068     210.596
  C       65.554     -35.007     209.698
  O       65.269     -34.585     211.031
  C       66.139     -33.838     208.873
  N       65.584     -33.772     207.516
  C       64.478     -32.942     207.344
  O       63.955     -32.322     208.268
  N       63.971     -32.876     206.076
  C       64.432     -33.572     204.992
  O       63.924     -33.490     203.879
  C       65.587     -34.449     205.238
  C       66.099     -34.509     206.470
  O       72.887     -34.688     209.184
  O       71.481     -36.246     207.746
  H       65.001     -35.380     211.535
  H       72.254     -36.784     208.007
  H       63.178     -32.274     205.930
  H       65.974     -35.021     204.404
  H       66.952     -35.151     206.672
  H       65.927     -32.878     209.361
  H       64.629     -35.435     209.295
  H       66.664     -36.487     208.673
  H       68.103     -34.708     210.697
  H       69.232     -36.824     209.582
  H       69.216     -35.872     208.114
  P       65.903     -38.452     210.327
  C       65.566     -38.809     212.874
  O       66.012     -39.353     211.650
  O       66.155     -39.128     209.018
  O       64.367     -37.988     210.373
  H       63.857     -38.540     209.749
  H       65.728     -39.551     213.665
  H       64.500     -38.581     212.823
  H       66.134     -37.907     213.120
  H       71.518     -32.736     205.791
  H       72.139     -34.369     205.839
  H       72.898     -33.117     206.793

 3  4  5  6  7  8  9  10  11  12  13  23  28  29  30  31  32 0
 6-311+G(2d,p)
 ****
 33  34 0
 6-311+G(2d,p)
 ****
 1  2  14  15  16  17  18  19  20  21  22  24  25  26  27 0
 3-21G
 ****
 35  36  37  38  39  40  41  42  43  44  45 0
 3-21G
 ****


