%nproc=1
%NoSave
%Mem=1900MB
#P OB98/GEN NMR

erre ene a

0 1
  C       28.941      20.252      25.499
  O       28.743      20.310      24.101
  H       29.600      21.062      25.825
  H       27.974      20.361      25.996
  H       29.374      19.286      25.776
  P       30.065      20.275      23.193
  C       30.552      19.577      20.745
  O       29.678      19.469      21.859
  C       30.082      18.666      19.619
  O       30.095      17.290      20.051
  C       28.657      18.923      19.142
  O       28.582      20.045      18.273
  C       28.368      17.623      18.405
  O       28.956      17.670      17.092
  C       29.097      16.583      19.269
  N       25.276      13.173      19.634
  C       25.928      13.686      18.566
  N       26.923      14.595      18.542
  C       27.254      14.971      19.788
  C       26.681      14.536      20.971
  C       25.640      13.598      20.864
  N       24.972      13.093      21.959
  N       27.288      15.130      22.055
  C       28.213      15.913      21.539
  N       28.227      15.856      20.171
  O       31.027      19.257      23.972
  O       30.727      21.594      22.976
  H       29.046      16.746      16.793
  H       31.949      19.561      23.880
  H       25.607      13.312      17.596
  H       28.894      16.530      22.114
  H       29.635      15.854      18.653
  H       27.301      17.429      18.279
  H       27.967      19.022      19.987
  H       30.793      18.762      18.788
  H       31.563      19.284      21.046
  H       24.381      12.289      21.835
  H       25.258      13.412      22.879
  H       30.569      20.619      20.410
  P       27.165      20.351      17.581
  C       26.217      22.308      16.166
  O       27.317      21.802      16.913
  O       26.203      20.620      18.831
  O       26.643      19.269      16.700
  H       25.278      20.426      18.585
  H       26.461      23.277      15.784
  H       25.358      22.381      16.800
  H       26.004      21.647      15.352

 6  7  8  9  10  11  12  13  14  15  25  28  32  33  34  35 0
 6-311+G(2d,p)
 ****
 36  39  40 0
 6-311+G(2d,p)
 ****
 1  2  3  4  5  16  17  18  19  20  21  22  23  24 0
 3-21G
 ****
 26  27  29  30  31  37  38  41  42  43  44  45  46  47  48 0
 3-21G
 ****


