%nproc=1
%NoSave
%Mem=1900MB
#P OB98/GEN NMR

erre ene a

0 1
  C     -893.250     224.601     526.031
  O     -894.160     225.710     526.105
  P     -895.710     225.343     526.276
  C     -896.140     226.879     528.328
  O     -896.130     225.547     527.817
  C     -896.020     226.893     529.854
  O     -897.080     226.125     530.477
  C     -894.680     226.347     530.365
  O     -894.330     227.065     531.544
  C     -895.030     224.910     530.760
  O     -894.080     224.382     531.684
  C     -896.460     225.134     531.325
  N     -897.240     223.896     531.378
  C     -896.980     223.021     532.447
  O     -896.090     223.274     533.243
  N     -897.720     221.883     532.539
  C     -898.610     221.601     531.638
  N     -899.310     220.438     531.797
  C     -898.870     222.462     530.467
  C     -898.150     223.578     530.406
  O     -895.760     223.757     526.077
  O     -896.600     226.032     525.286
  H     -894.220     224.817     532.553
  H     -896.440     223.511     525.442
  H     -899.600     222.161     529.734
  H     -898.280     224.277     529.591
  H     -896.400     225.541     532.349
  H     -895.070     224.279     529.875
  H     -893.870     226.401     529.628
  H     -896.120     227.932     530.191
  H     -899.100     219.882     532.626
  H     -897.080     227.360     528.048
  H     -900.000     220.113     531.154
  H     -895.340     227.445     527.857
  P     -892.790     227.477     531.735
  C     -893.390     229.959     531.515
  O     -892.660     228.892     530.984
  O     -892.050     226.486     530.716
  O     -892.200     227.403     533.110
  H     -891.090     226.614     530.787
  H     -893.120     230.891     530.983
  H     -893.180     230.087     532.577
  H     -894.470     229.804     531.367
  H     -892.251     224.967     525.918
  H     -893.502     223.988     525.191
  H     -893.319     224.023     526.928

 3  4  5  6  7  8  9  10  11  12  13  21  23  27  28  29  30  32 0
 6-311+G(2d,p)
 ****
 34  35 0
 6-311+G(2d,p)
 ****
 1  2  14  15  16  17  18  19  20  22  24  25  26 0
 3-21G
 ****
 31  33  36  37  38  39  40  41  42  43  44  45  46 0
 3-21G
 ****


