%nproc=1
%NoSave
%Mem=1900MB
#P OB98/GEN NMR

erre ene a

0 1
  C      -93.982     123.989     311.476
  O      -93.916     123.925     310.065
  P      -94.883     122.901     309.298
  C      -93.030     121.798     307.793
  O      -94.199     122.598     307.877
  C      -92.295     122.072     306.477
  O      -93.199     121.797     305.369
  C      -91.787     123.508     306.317
  O      -90.550     123.445     305.593
  C      -92.867     124.154     305.459
  O      -92.405     125.311     304.774
  C      -93.242     122.982     304.545
  N      -94.559     123.129     303.922
  C      -94.632     123.080     302.530
  O      -93.652     122.947     301.799
  N      -95.888     123.223     301.997
  C      -97.035     123.475     302.694
  O      -98.132     123.614     302.163
  C      -96.884     123.560     304.156
  C      -95.683     123.378     304.695
  O      -96.118     123.854     308.939
  O      -95.232     121.689     310.098
  H      -95.851     124.763     308.722
  H      -91.786     125.021     304.075
  H      -95.973     123.159     300.995
  H      -97.777     123.774     304.744
  H      -95.544     123.444     305.763
  H      -92.480     122.856     303.765
  H      -93.711     124.446     306.096
  H      -91.637     124.011     307.276
  H      -91.463     121.359     306.398
  H      -93.313     120.741     307.835
  H      -92.387     122.009     308.655
  P      -89.204     123.128     306.429
  C      -88.709     125.492     307.450
  O      -88.364     124.492     306.507
  O      -88.391     122.280     305.341
  O      -89.413     122.390     307.711
  H      -88.373     122.694     304.464
  H      -87.852     126.159     307.579
  H      -88.964     125.063     308.417
  H      -89.550     126.078     307.069
  H      -93.281     124.714     311.833
  H      -93.746     123.030     311.888
  H      -94.970     124.272     311.774

 3  4  5  6  7  8  9  10  11  12  13  24  28  29  30  31  32 0
 6-311+G(2d,p)
 ****
 33  34 0
 6-311+G(2d,p)
 ****
 1  2  14  15  16  17  18  19  20  21  22  23  25  26  27 0
 3-21G
 ****
 35  36  37  38  39  40  41  42  43  44  45 0
 3-21G
 ****


