%nproc=1
%NoSave
%Mem=1900MB
#P OB98/GEN NMR

erre ene a

0 1
  C     -232.664    -109.807    -244.187
  O     -231.674    -110.514    -243.437
  P     -231.082    -109.750    -242.155
  C     -228.869    -108.977    -243.262
  O     -230.109    -108.589    -242.691
  C     -227.762    -107.975    -242.907
  O     -226.481    -108.409    -243.458
  C     -228.023    -106.558    -243.441
  O     -227.493    -105.649    -242.465
  C     -227.189    -106.533    -244.711
  O     -226.958    -105.226    -245.206
  C     -225.964    -107.301    -244.230
  N     -221.130    -108.076    -245.666
  C     -221.667    -107.580    -244.529
  N     -222.969    -107.400    -244.225
  C     -223.749    -107.802    -245.242
  C     -223.350    -108.325    -246.462
  C     -221.964    -108.461    -246.661
  N     -221.407    -108.944    -247.822
  N     -224.451    -108.600    -247.261
  C     -225.482    -108.175    -246.553
  N     -225.115    -107.768    -245.302
  O     -230.084    -110.821    -241.509
  O     -232.130    -109.294    -241.195
  H     -227.806    -104.743    -245.277
  H     -230.509    -111.272    -240.757
  H     -220.953    -107.283    -243.764
  H     -226.505    -108.145    -246.896
  H     -225.334    -106.699    -243.560
  H     -227.712    -107.095    -245.497
  H     -229.083    -106.335    -243.598
  H     -227.655    -107.953    -241.817
  H     -228.960    -109.039    -244.351
  H     -220.403    -108.998    -247.875
  H     -221.994    -109.232    -248.592
  H     -228.615    -109.985    -242.915
  P     -228.508    -104.881    -241.489
  C     -227.804    -102.477    -242.040
  O     -228.786    -103.477    -242.221
  O     -227.508    -104.431    -240.317
  O     -229.690    -105.659    -241.019
  H     -226.718    -103.994    -240.680
  H     -228.070    -101.607    -242.652
  H     -226.824    -102.847    -242.357
  H     -227.766    -102.172    -240.991
  H     -232.984    -110.409    -245.012
  H     -232.248    -108.892    -244.553
  H     -233.502    -109.591    -243.557

 3  4  5  6  7  8  9  10  11  12  22  25  29  30  31  32 0
 6-311+G(2d,p)
 ****
 33  36  37 0
 6-311+G(2d,p)
 ****
 1  2  13  14  15  16  17  18  19  20  21  23  24  26 0
 3-21G
 ****
 27  28  34  35  38  39  40  41  42  43  44  45  46  47  48 0
 3-21G
 ****


