%nproc=1
%NoSave
%Mem=1900MB
#P OB98/GEN NMR

erre ene a

0 1
  C       -4.277    -293.587    -227.258
  O       -4.129    -293.007    -225.978
  H       -5.341    -293.630    -227.504
  H       -3.874    -294.604    -227.261
  H       -3.765    -292.980    -228.010
  P       -2.629    -292.878    -225.421
  C       -2.431    -290.355    -224.856
  O       -2.145    -291.390    -225.784
  C       -3.602    -289.509    -225.347
  O       -4.808    -290.303    -225.427
  C       -3.929    -288.310    -224.464
  O       -3.082    -287.213    -224.758
  C       -5.381    -288.052    -224.839
  O       -5.484    -287.308    -226.070
  C       -5.928    -289.475    -225.012
  N      -10.308    -290.397    -222.679
  C      -10.059    -289.874    -223.931
  N      -11.139    -289.492    -224.647
  N       -8.861    -289.729    -224.433
  C       -7.878    -290.125    -223.590
  C       -7.998    -290.673    -222.333
  C       -9.332    -290.856    -221.803
  O       -9.623    -291.372    -220.729
  N       -6.769    -290.963    -221.798
  C       -5.909    -290.556    -222.713
  N       -6.532    -290.024    -223.811
  O       -1.779    -293.794    -226.422
  O       -2.436    -293.291    -224.001
  H       -5.178    -287.864    -226.807
  H       -1.020    -294.173    -225.941
  H      -11.254    -290.500    -222.355
  H       -4.833    -290.624    -222.625
  H       -6.684    -289.533    -225.803
  H       -5.896    -287.464    -224.077
  H      -12.018    -289.270    -224.202
  H       -3.870    -288.583    -223.403
  H      -10.962    -289.087    -225.558
  H       -3.364    -289.180    -226.368
  H       -1.547    -289.716    -224.751
  H       -2.670    -290.798    -223.883
  P       -1.694    -287.106    -223.958
  C       -0.079    -285.907    -225.608
  O       -0.533    -287.138    -225.065
  O       -1.565    -288.535    -223.248
  O       -1.622    -285.983    -222.980
  H       -0.908    -288.491    -222.528
  H        0.691    -286.096    -226.327
  H        0.310    -285.293    -224.823
  H       -0.895    -285.404    -226.083

 6  7  8  9  10  11  12  13  14  15  26  29  33  34 0
 6-311+G(2d,p)
 ****
 36  38  39  40  41 0
 6-311+G(2d,p)
 ****
 1  2  3  4  5  16  17  18  19  20  21  22  23  24  25 0
 3-21G
 ****
 27  28  30  31  32  35  37  42  43  44  45  46  47 0
 3-21G
 ****
 48  49 0
 3-21G
 ****


