%nproc=1
%NoSave
%Mem=1900MB
#P OB98/GEN NMR

erre ene a

0 1
  C      -89.793     238.973    -109.399
  O      -88.658     238.587    -110.147
  H      -89.808     238.402    -108.467
  H      -90.711     238.763    -109.954
  H      -89.741     240.038    -109.155
  P      -88.468     239.199    -111.615
  C      -88.253     237.252    -113.303
  O      -89.124     238.154    -112.638
  C      -88.917     236.679    -114.561
  O      -89.897     235.679    -114.160
  C      -89.657     237.729    -115.405
  O      -89.604     237.295    -116.770
  C      -91.066     237.613    -114.860
  O      -91.999     238.245    -115.701
  C      -91.174     236.094    -114.694
  N      -92.279     235.702    -113.835
  C      -93.562     235.927    -114.340
  O      -93.714     236.442    -115.446
  N      -94.643     235.591    -113.564
  C      -94.458     235.136    -112.365
  N      -95.570     234.837    -111.643
  C      -93.119     234.939    -111.772
  C      -92.084     235.235    -112.557
  O      -87.083     239.631    -111.964
  O      -89.489     240.433    -111.654
  H      -91.629     239.080    -116.069
  H      -88.996     241.270    -111.576
  H      -93.018     234.574    -110.761
  H      -91.061     235.124    -112.210
  H      -91.297     235.603    -115.668
  H      -91.143     238.103    -113.884
  H      -89.230     238.730    -115.311
  H      -88.156     236.158    -115.154
  H      -96.468     234.997    -112.084
  H      -88.018     236.444    -112.603
  H      -95.551     234.496    -110.693
  H      -87.322     237.760    -113.579
  P      -88.632     237.959    -117.859
  C      -90.219     239.793    -118.737
  O      -89.013     239.505    -118.036
  O      -88.551     237.201    -119.145
  O      -87.193     238.010    -117.154
  H      -86.501     237.925    -117.836
  H      -90.358     240.853    -118.787
  H      -91.045     239.348    -118.223
  H      -90.159     239.394    -119.728

 6  7  8  9  10  11  12  13  14  15  16  26  30  31  32  33  35 0
 6-311+G(2d,p)
 ****
 37  38 0
 6-311+G(2d,p)
 ****
 1  2  3  4  5  17  18  19  20  21  22  23  24  25 0
 3-21G
 ****
 27  28  29  34  36  39  40  41  42  43  44  45  46 0
 3-21G
 ****


