%nproc=1
%NoSave
%Mem=1900MB
#P OB98/GEN NMR

erre ene a

0 1
  C      290.592    -338.450    -157.482
  O      289.701    -337.543    -158.101
  H      291.574    -338.404    -157.961
  H      290.697    -338.173    -156.430
  H      290.194    -339.467    -157.543
  P      289.495    -337.716    -159.682
  C      291.266    -337.474    -161.558
  O      290.691    -336.913    -160.388
  C      292.710    -337.008    -161.710
  O      293.474    -337.360    -160.540
  C      293.459    -337.631    -162.882
  O      293.124    -337.011    -164.119
  C      294.897    -337.337    -162.482
  O      295.228    -335.977    -162.822
  C      294.858    -337.502    -160.956
  N      299.043    -340.243    -159.803
  C      298.891    -338.974    -160.242
  N      297.752    -338.315    -160.540
  C      296.680    -339.097    -160.324
  C      296.681    -340.407    -159.876
  C      297.932    -340.988    -159.616
  N      298.079    -342.289    -159.180
  N      295.393    -340.882    -159.760
  C      294.625    -339.877    -160.130
  N      295.358    -338.779    -160.489
  O      288.209    -336.811    -159.993
  O      289.300    -339.119    -160.153
  H      294.572    -335.410    -162.370
  H      287.683    -337.238    -160.694
  H      299.810    -338.409    -160.374
  H      293.543    -339.901    -160.152
  H      295.423    -336.707    -160.450
  H      295.624    -337.984    -162.981
  H      293.309    -338.715    -162.921
  H      292.703    -335.912    -161.790
  H      290.692    -337.156    -162.434
  H      298.970    -342.582    -158.825
  H      297.236    -342.840    -159.034
  H      291.224    -338.566    -161.484
  P      293.247    -337.903    -165.449
  C      295.287    -338.974    -166.641
  O      294.811    -337.922    -165.811
  O      292.619    -336.957    -166.577
  O      292.564    -339.227    -165.391
  H      292.277    -337.499    -167.313
  H      296.339    -338.858    -166.796
  H      294.782    -338.941    -167.584
  H      295.098    -339.915    -166.168

 6  7  8  9  10  11  12  13  14  15  25  28  32  33  34  35 0
 6-311+G(2d,p)
 ****
 36  39  40 0
 6-311+G(2d,p)
 ****
 1  2  3  4  5  16  17  18  19  20  21  22  23  24 0
 3-21G
 ****
 26  27  29  30  31  37  38  41  42  43  44  45  46  47  48 0
 3-21G
 ****


