%nproc=1
%NoSave
%Mem=1900MB
#P OB98/GEN NMR

erre ene a

0 1
  C      491.548      92.090     -33.789
  O      492.479      92.525     -34.787
  P      492.081      93.864     -35.582
  C      494.491      94.824     -35.607
  O      493.387      94.371     -36.377
  C      495.756      94.948     -36.464
  O      496.363      93.645     -36.697
  C      495.507      95.575     -37.844
  O      496.672      96.346     -38.171
  C      495.442      94.364     -38.756
  O      495.645      94.721     -40.121
  C      496.537      93.506     -38.124
  N      498.131      90.141     -41.539
  C      498.297      91.510     -41.493
  N      499.044      92.058     -42.476
  N      497.785      92.275     -40.569
  C      497.094      91.584     -39.627
  C      496.871      90.226     -39.546
  C      497.426      89.397     -40.605
  O      497.309      88.181     -40.683
  N      496.153      89.898     -38.424
  C      495.887      91.068     -37.867
  N      496.482      92.114     -38.520
  O      491.904      94.944     -34.411
  O      490.849      93.733     -36.406
  H      496.562      95.062     -40.200
  H      490.960      95.071     -34.212
  H      498.537      89.602     -42.282
  H      495.295      91.212     -36.976
  H      497.545      93.861     -38.388
  H      494.462      93.872     -38.670
  H      499.511      91.525     -43.192
  H      494.609      96.198     -37.904
  H      499.215      93.059     -42.447
  H      496.486      95.555     -35.912
  H      494.688      94.126     -34.787
  H      494.232      95.779     -35.139
  P      496.448      97.788     -38.826
  C      498.654      98.713     -37.820
  O      497.896      98.465     -38.989
  O      495.781      98.630     -37.633
  O      495.582      97.797     -40.040
  H      495.097      99.221     -37.997
  H      499.712      98.717     -38.084
  H      498.480      97.952     -37.057
  H      498.382      99.698     -37.419
  H      491.912      91.196     -33.327
  H      490.600      91.895     -34.246
  H      491.436      92.854     -33.048

 3  4  5  6  7  8  9  10  11  12  23  26  30  31 0
 6-311+G(2d,p)
 ****
 33  35  36  37  38 0
 6-311+G(2d,p)
 ****
 1  2  13  14  15  16  17  18  19  20  21  22  24  25 0
 3-21G
 ****
 27  28  29  32  34  39  40  41  42  43  44  45  46  47  48  49 0
 3-21G
 ****


