%nproc=1
%NoSave
%Mem=1900MB
#P OB98/GEN NMR

erre ene a

0 1
  C      218.347     134.535     -19.834
  O      217.154     134.016     -20.434
  P      217.097     133.573     -21.975
  C      216.864     131.145     -22.804
  O      217.679     132.083     -22.104
  C      217.588     129.808     -23.008
  O      218.777     129.984     -23.802
  C      218.039     129.131     -21.720
  O      216.951     128.481     -21.089
  C      219.131     128.201     -22.238
  O      218.552     127.006     -22.791
  C      219.769     129.048     -23.344
  N      224.791     128.602     -22.485
  C      223.875     127.731     -22.958
  N      222.553     127.919     -23.153
  C      222.204     129.180     -22.830
  C      223.029     130.178     -22.332
  C      224.383     129.851     -22.158
  N      225.313     130.736     -21.660
  N      222.308     131.330     -22.092
  C      221.075     131.036     -22.457
  N      220.963     129.749     -22.909
  O      217.713     134.554     -22.917
  O      215.538     133.389     -22.289
  H      219.276     126.481     -23.179
  H      215.370     133.556     -23.235
  H      224.256     126.743     -23.211
  H      220.235     131.719     -22.415
  H      220.047     128.437     -24.212
  H      219.831     127.893     -21.454
  H      218.482     129.870     -21.044
  H      216.914     129.148     -23.572
  H      216.606     131.573     -23.781
  H      226.258     130.414     -21.533
  H      225.008     131.654     -21.370
  H      215.945     130.988     -22.233
  P      216.446     128.975     -19.648
  C      214.276     130.048     -18.801
  O      215.175     129.918     -19.889
  O      217.498     129.541     -18.756
  O      215.789     127.659     -19.009
  H      215.877     127.697     -18.037
  H      213.618     129.175     -18.769
  H      213.667     130.945     -18.957
  H      214.814     130.144     -17.857
  H      218.159     134.764     -18.806
  H      218.647     135.424     -20.348
  H      219.126     133.805     -19.900

 3  4  5  6  7  8  9  10  11  12  22  25  29  30  31  32 0
 6-311+G(2d,p)
 ****
 33  36  37 0
 6-311+G(2d,p)
 ****
 1  2  13  14  15  16  17  18  19  20  21  23  24  26 0
 3-21G
 ****
 27  28  34  35  38  39  40  41  42  43  44  45  46  47  48 0
 3-21G
 ****


