%nproc=1
%NoSave
%Mem=1900MB
#P OB98/GEN NMR

erre ene a

0 1
  C     -268.848     180.719    -198.750
  O     -269.980     180.543    -197.916
  P     -269.812     179.550    -196.661
  C     -271.025     180.879    -194.769
  O     -271.072     179.817    -195.709
  C     -272.448     181.308    -194.409
  O     -273.048     182.028    -195.504
  C     -273.390     180.154    -194.089
  O     -273.210     179.720    -192.755
  C     -274.750     180.791    -194.352
  O     -275.173     181.583    -193.228
  C     -274.457     181.676    -195.573
  N     -278.076     180.732    -198.975
  C     -278.168     181.260    -197.701
  N     -279.404     181.629    -197.293
  N     -277.148     181.413    -196.900
  C     -275.979     180.988    -197.436
  C     -275.760     180.436    -198.676
  C     -276.891     180.319    -199.569
  O     -276.843     179.950    -200.740
  N     -274.442     180.104    -198.853
  C     -273.864     180.488    -197.735
  N     -274.746     181.050    -196.849
  O     -268.579     180.177    -195.867
  O     -269.602     178.111    -197.014
  H     -275.388     180.995    -192.483
  H     -267.752     179.701    -196.078
  H     -278.893     180.653    -199.551
  H     -272.808     180.401    -197.527
  H     -275.024     182.615    -195.545
  H     -275.529     180.042    -194.520
  H     -280.239     181.517    -197.846
  H     -273.226     179.326    -194.791
  H     -279.493     182.014    -196.360
  H     -272.385     181.998    -193.554
  H     -270.495     181.727    -195.208
  H     -270.484     180.545    -193.876
  P     -273.560     178.191    -192.420
  C     -271.946     177.909    -190.404
  O     -273.283     177.974    -190.857
  O     -272.377     177.379    -193.133
  O     -274.897     177.741    -192.902
  H     -272.724     176.540    -193.486
  H     -271.903     178.282    -189.379
  H     -271.276     178.507    -191.031
  H     -271.613     176.867    -190.416
  H     -269.090     181.398    -199.541
  H     -268.561     179.776    -199.165
  H     -268.039     181.117    -198.174

 3  4  5  6  7  8  9  10  11  12  23  26  30  31 0
 6-311+G(2d,p)
 ****
 33  35  36  37  38 0
 6-311+G(2d,p)
 ****
 1  2  13  14  15  16  17  18  19  20  21  22  24  25 0
 3-21G
 ****
 27  28  29  32  34  39  40  41  42  43  44  45  46  47  48  49 0
 3-21G
 ****


