%nproc=1
%NoSave
%Mem=1900MB
#P OB98/GEN NMR

erre ene a

0 1
  C      273.958     -96.465    -109.819
  O      273.232     -95.351    -110.300
  H      273.280     -97.111    -109.255
  H      274.763     -96.133    -109.158
  H      274.373     -97.036    -110.657
  P      274.063     -94.265    -111.140
  C      272.003     -92.686    -111.143
  O      273.380     -92.845    -110.830
  C      271.342     -91.722    -110.163
  O      271.009     -92.397    -108.929
  C      272.201     -90.521    -109.783
  O      272.111     -89.499    -110.761
  C      271.573     -90.116    -108.454
  O      270.377     -89.337    -108.650
  C      271.245     -91.478    -107.828
  N      272.369     -95.048    -104.434
  C      271.217     -94.844    -105.165
  N      270.192     -95.688    -104.917
  N      271.076     -93.894    -106.055
  C      272.172     -93.109    -106.170
  C      273.378     -93.216    -105.514
  C      273.529     -94.292    -104.559
  O      274.545     -94.563    -103.924
  N      274.253     -92.241    -105.918
  C      273.566     -91.523    -106.787
  N      272.290     -91.999    -106.963
  O      273.629     -94.553    -112.656
  O      275.543     -94.322    -110.971
  H      270.229     -88.774    -107.871
  H      274.371     -94.329    -113.247
  H      272.422     -95.805    -103.780
  H      273.943     -90.655    -107.311
  H      270.328     -91.446    -107.229
  H      272.254     -89.503    -107.861
  H      270.123     -96.198    -104.046
  H      273.242     -90.823    -109.620
  H      269.336     -95.535    -105.435
  H      270.396     -91.391    -110.615
  H      271.507     -93.659    -111.078
  H      271.907     -92.305    -112.167
  P      273.453     -89.103    -111.550
  C      272.526     -86.754    -112.177
  O      273.540     -87.500    -111.519
  O      273.094     -89.420    -113.075
  O      274.678     -89.825    -111.098
  H      273.909     -89.476    -113.606
  H      272.724     -85.708    -112.067
  H      271.575     -86.985    -111.743
  H      272.515     -87.007    -113.217

 6  7  8  9  10  11  12  13  14  15  26  29  33  34 0
 6-311+G(2d,p)
 ****
 36  38  39  40  41 0
 6-311+G(2d,p)
 ****
 1  2  3  4  5  16  17  18  19  20  21  22  23  24  25 0
 3-21G
 ****
 27  28  30  31  32  35  37  42  43  44  45  46  47 0
 3-21G
 ****
 48  49 0
 3-21G
 ****


