%nproc=1
%NoSave
%Mem=1900MB
#P OB98/GEN NMR

erre ene a

0 1
  C      170.170      81.138     -42.541
  O      168.874      81.698     -42.590
  H      170.867      81.822     -43.031
  H      170.186      80.182     -43.072
  H      170.492      80.992     -41.506
  P      167.694      80.993     -41.763
  C      167.283      80.391     -39.287
  O      168.237      80.778     -40.270
  C      167.875      79.314     -38.382
  O      167.979      78.064     -39.100
  C      169.282      79.624     -37.883
  O      169.249      80.588     -36.850
  C      169.740      78.238     -37.454
  O      169.212      77.903     -36.160
  C      169.111      77.349     -38.555
  N      170.057      76.985     -39.611
  C      170.941      75.951     -39.318
  O      170.976      75.385     -38.225
  N      171.803      75.598     -40.324
  C      171.920      76.223     -41.532
  O      172.750      75.903     -42.383
  C      170.984      77.331     -41.773
  C      170.109      77.656     -40.818
  O      167.094      79.781     -42.395
  O      166.611      82.161     -41.584
  H      168.245      78.012     -36.216
  H      165.896      82.047     -42.237
  H      172.461      74.861     -40.126
  H      171.051      77.854     -42.721
  H      169.413      78.472     -40.975
  H      168.717      76.424     -38.115
  H      170.826      78.157     -37.382
  H      169.913      79.961     -38.715
  H      167.188      79.160     -37.538
  H      166.395      79.995     -39.795
  H      166.996      81.272     -38.704
  P      170.558      81.426     -36.469
  C      172.354      82.757     -37.727
  O      171.316      81.791     -37.841
  O      171.427      80.807     -35.426
  O      169.991      82.838     -35.983
  H      170.064      82.909     -35.009
  H      172.790      82.927     -38.689
  H      173.104      82.397     -37.054
  H      171.949      83.674     -37.352

 6  7  8  9  10  11  12  13  14  15  16  26  31  32  33  34  35 0
 6-311+G(2d,p)
 ****
 36  37 0
 6-311+G(2d,p)
 ****
 1  2  3  4  5  17  18  19  20  21  22  23  24  25 0
 3-21G
 ****
 27  28  29  30  38  39  40  41  42  43  44  45 0
 3-21G
 ****


