%nproc=1
%NoSave
%Mem=1900MB
#P OB98/GEN NMR

erre ene a

0 1
  C       -2.130    -348.508    -362.414
  O       -1.343    -347.702    -363.265
  P        0.167    -348.113    -363.614
  C        0.851    -345.632    -363.473
  O        1.095    -346.951    -363.004
  C        1.328    -344.606    -362.449
  O        0.477    -344.618    -361.270
  C        2.726    -344.873    -361.908
  O        3.808    -344.757    -362.815
  C        2.749    -343.976    -360.686
  O        3.030    -342.619    -361.038
  C        1.288    -344.107    -360.175
  N        1.198    -344.955    -358.990
  C        0.624    -344.371    -357.862
  O        0.207    -343.211    -357.838
  N        0.565    -345.158    -356.749
  C        1.063    -346.428    -356.628
  O        1.022    -347.058    -355.578
  C        1.677    -346.989    -357.850
  C        1.716    -346.239    -358.951
  O        0.425    -348.427    -365.048
  O        0.453    -349.337    -362.614
  H        3.999    -342.534    -361.131
  H        0.364    -349.116    -361.667
  H        0.170    -344.749    -355.915
  H        2.063    -347.993    -357.796
  H        2.157    -346.628    -359.862
  H        0.880    -343.114    -359.921
  H        3.509    -344.282    -359.963
  H        2.759    -345.908    -361.540
  H        1.242    -343.608    -362.897
  H       -0.229    -345.507    -363.628
  H        1.350    -345.489    -364.444
  P        5.007    -345.818    -362.892
  C        6.480    -344.088    -364.142
  O        6.376    -345.009    -363.078
  O        4.792    -347.017    -363.761
  O        5.113    -346.298    -361.364
  H        5.412    -347.225    -361.341
  H        7.490    -343.666    -364.143
  H        5.763    -343.267    -364.009
  H        6.302    -344.585    -365.107
  H       -3.100    -348.070    -362.304
  H       -1.660    -348.579    -361.455
  H       -2.226    -349.486    -362.838

 3  4  5  6  7  8  9  10  11  12  13  23  28  29  30  31  32 0
 6-311+G(2d,p)
 ****
 33  34 0
 6-311+G(2d,p)
 ****
 1  2  14  15  16  17  18  19  20  21  22  24  25  26  27 0
 3-21G
 ****
 35  36  37  38  39  40  41  42  43  44  45 0
 3-21G
 ****


