%nproc=1
%NoSave
%Mem=1900MB
#P OB98/GEN NMR

erre ene a

0 1
  C      -95.513     -60.001    -151.705
  O      -95.476     -60.917    -152.796
  P      -94.417     -60.665    -153.972
  C      -93.745     -58.594    -155.479
  O      -94.681     -59.240    -154.644
  C      -94.493     -57.859    -156.605
  O      -95.092     -58.809    -157.514
  C      -95.615     -56.958    -156.095
  O      -95.146     -55.669    -155.745
  C      -96.574     -56.957    -157.272
  O      -96.100     -56.069    -158.301
  C      -96.480     -58.428    -157.741
  N      -97.355     -59.424    -157.088
  C      -98.188     -60.228    -157.863
  O      -98.261     -60.171    -159.088
  N      -98.954     -61.137    -157.180
  C      -98.854     -61.443    -155.853
  O      -99.522     -62.310    -155.305
  C      -97.853     -60.670    -155.107
  C      -97.174     -59.711    -155.739
  O      -94.849     -61.707    -155.104
  O      -92.986     -60.842    -153.564
  H      -96.744     -56.101    -159.030
  H      -94.147     -62.370    -155.241
  H      -99.616     -61.678    -157.716
  H      -97.705     -60.911    -154.061
  H      -96.432     -59.132    -155.195
  H      -96.667     -58.500    -158.819
  H      -97.555     -56.587    -156.980
  H      -96.125     -57.431    -155.249
  H      -93.766     -57.261    -157.170
  H      -93.041     -59.312    -155.907
  H      -93.156     -57.885    -154.889
  P      -95.018     -55.259    -154.202
  C      -96.675     -54.653    -152.336
  O      -96.526     -55.126    -153.664
  O      -94.120     -54.106    -153.903
  O      -94.517     -56.611    -153.494
  H      -93.539     -56.607    -153.389
  H      -97.734     -54.456    -152.152
  H      -96.111     -53.726    -152.194
  H      -96.325     -55.413    -151.632
  H      -96.267     -60.305    -151.009
  H      -95.739     -59.021    -152.070
  H      -94.561     -59.989    -151.217

 3  4  5  6  7  8  9  10  11  12  13  23  28  29  30  31  32 0
 6-311+G(2d,p)
 ****
 33  34 0
 6-311+G(2d,p)
 ****
 1  2  14  15  16  17  18  19  20  21  22  24  25  26  27 0
 3-21G
 ****
 35  36  37  38  39  40  41  42  43  44  45 0
 3-21G
 ****


