%nproc=1
%NoSave
%Mem=1900MB
#P OB98/GEN NMR

erre ene a

0 1
  C      559.144    -149.387     103.037
  O      559.733    -150.595     102.547
  P      560.039    -151.773     103.597
  C      562.496    -151.991     102.809
  O      561.617    -151.789     103.916
  C      563.966    -151.910     103.258
  O      564.310    -150.525     103.504
  C      564.271    -152.657     104.573
  O      564.645    -154.033     104.498
  C      565.504    -151.892     105.061
  O      566.692    -152.408     104.407
  C      565.258    -150.452     104.606
  N      566.437    -146.781     107.963
  C      567.174    -147.433     107.032
  N      566.785    -148.401     106.174
  C      565.481    -148.672     106.336
  C      564.593    -148.106     107.245
  C      565.124    -147.103     108.098
  N      564.374    -146.454     109.047
  N      563.338    -148.651     107.118
  C      563.462    -149.560     106.164
  N      564.736    -149.607     105.645
  O      559.436    -153.097     103.270
  O      559.426    -151.182     104.958
  H      566.785    -153.332     104.699
  H      559.008    -151.917     105.462
  H      568.228    -147.139     106.968
  H      562.659    -150.210     105.821
  H      566.165    -149.977     104.220
  H      565.664    -152.006     106.131
  H      563.458    -152.533     105.289
  H      564.617    -152.291     102.457
  H      562.308    -151.230     102.043
  H      564.843    -145.787     109.642
  H      563.411    -146.719     109.190
  H      562.236    -152.960     102.361
  P      563.639    -155.192     104.959
  C      563.881    -154.573     107.509
  O      563.043    -154.692     106.372
  O      564.228    -156.568     104.986
  O      562.414    -155.009     103.956
  H      561.900    -154.191     104.100
  H      563.344    -154.023     108.290
  H      564.790    -154.020     107.258
  H      564.145    -155.568     107.882
  H      559.002    -148.704     102.225
  H      559.791    -148.945     103.766
  H      558.198    -149.608     103.486

 3  4  5  6  7  8  9  10  11  12  22  25  29  30  31  32 0
 6-311+G(2d,p)
 ****
 33  36  37 0
 6-311+G(2d,p)
 ****
 1  2  13  14  15  16  17  18  19  20  21  23  24  26 0
 3-21G
 ****
 27  28  34  35  38  39  40  41  42  43  44  45  46  47  48 0
 3-21G
 ****


