%nproc=1
%NoSave
%Mem=1900MB
#P OB98/GEN NMR

erre ene a

0 1
  C      -25.701     -15.880     103.861
  O      -24.664     -16.832     103.955
  H      -26.361     -16.159     103.035
  H      -25.282     -14.892     103.652
  H      -26.283     -15.851     104.785
  P      -23.660     -16.711     105.200
  C      -24.762     -18.001     107.165
  O      -23.852     -18.043     106.077
  C      -24.777     -19.341     107.900
  O      -25.700     -19.253     109.016
  C      -25.209     -20.519     107.023
  O      -24.426     -21.663     107.375
  C      -26.654     -20.753     107.423
  O      -27.082     -22.093     107.181
  C      -26.638     -20.340     108.900
  N      -27.969     -19.960     109.364
  C      -28.711     -20.945     110.021
  O      -28.241     -22.074     110.178
  N      -29.985     -20.652     110.434
  C      -30.507     -19.503     110.139
  N      -31.785     -19.282     110.548
  C      -29.786     -18.456     109.387
  C      -28.532     -18.746     109.042
  O      -24.329     -15.577     106.107
  O      -22.243     -16.399     104.851
  H      -26.367     -22.701     107.468
  H      -23.653     -15.063     106.588
  H      -30.273     -17.524     109.142
  H      -27.928     -18.043     108.482
  H      -26.270     -21.164     109.527
  H      -27.306     -20.083     106.849
  H      -25.104     -20.321     105.954
  H      -23.780     -19.515     108.324
  H      -32.253     -20.031     111.045
  H      -25.767     -17.796     106.781
  H      -32.305     -18.445     110.336
  H      -24.475     -17.194     107.849
  P      -23.917     -22.586     106.168
  C      -21.973     -20.911     105.768
  O      -22.367     -22.269     105.915
  O      -24.648     -21.961     104.890
  O      -24.248     -24.033     106.340
  H      -25.350     -22.562     104.580
  H      -20.916     -20.862     105.606
  H      -22.224     -20.369     106.656
  H      -22.482     -20.480     104.931

 6  7  8  9  10  11  12  13  14  15  16  26  30  31  32  33  35 0
 6-311+G(2d,p)
 ****
 37  38 0
 6-311+G(2d,p)
 ****
 1  2  3  4  5  17  18  19  20  21  22  23  24  25 0
 3-21G
 ****
 27  28  29  34  36  39  40  41  42  43  44  45  46 0
 3-21G
 ****


