%nproc=1
%NoSave
%Mem=1900MB
#P OB98/GEN NMR

erre ene a

0 1
  C     -316.282     872.057     528.063
  O     -317.663     872.138     527.783
  H     -316.148     871.923     529.143
  H     -315.787     872.984     527.765
  H     -315.830     871.206     527.542
  P     -318.104     872.182     526.238
  C     -317.214     870.710     524.291
  O     -317.727     870.749     525.616
  C     -318.012     869.723     523.437
  O     -317.969     868.415     524.070
  C     -319.481     870.112     523.256
  O     -319.882     869.782     521.929
  C     -320.217     869.217     524.248
  O     -321.571     868.990     523.875
  C     -319.326     867.962     524.243
  N     -319.492     867.189     525.469
  C     -320.764     866.647     525.706
  O     -321.679     866.848     524.903
  N     -320.981     865.952     526.866
  C     -320.034     865.869     527.752
  N     -320.337     865.194     528.899
  C     -318.707     866.482     527.580
  C     -318.499     867.113     526.421
  O     -317.030     873.164     525.572
  O     -319.506     872.621     525.987
  H     -321.585     868.628     522.960
  H     -317.416     873.662     524.829
  H     -317.962     866.405     528.361
  H     -317.552     867.590     526.202
  H     -319.571     867.318     523.385
  H     -320.206     869.683     525.238
  H     -319.674     871.176     523.443
  H     -317.511     869.624     522.465
  H     -321.257     864.802     528.990
  H     -316.165     870.386     524.328
  H     -319.689     865.101     529.674
  H     -317.256     871.717     523.851
  P     -320.072     871.009     520.908
  C     -317.614     871.836     521.002
  O     -318.656     871.303     520.205
  O     -320.291     872.261     521.874
  O     -321.221     870.830     519.963
  H     -321.225     872.556     521.837
  H     -316.741     871.977     520.400
  H     -317.392     871.158     521.799
  H     -317.922     872.776     521.409

 6  7  8  9  10  11  12  13  14  15  16  26  30  31  32  33  35 0
 6-311+G(2d,p)
 ****
 37  38 0
 6-311+G(2d,p)
 ****
 1  2  3  4  5  17  18  19  20  21  22  23  24  25 0
 3-21G
 ****
 27  28  29  34  36  39  40  41  42  43  44  45  46 0
 3-21G
 ****


