%nproc=1
%NoSave
%Mem=1900MB
#P OB98/GEN NMR

erre ene a

0 1
  C      550.148    -712.130    -708.691
  O      551.439    -712.377    -709.231
  P      551.796    -711.701    -710.655
  C      554.265    -711.151    -710.044
  O      553.378    -711.884    -710.876
  C      555.722    -711.411    -710.423
  O      556.011    -712.834    -710.225
  C      556.078    -711.086    -711.887
  O      557.418    -710.604    -711.892
  C      555.967    -712.430    -712.558
  O      556.599    -712.512    -713.833
  C      556.562    -713.323    -711.469
  N      558.469    -718.059    -712.025
  C      559.071    -716.856    -711.799
  N      558.499    -715.644    -711.659
  C      557.156    -715.750    -711.756
  C      556.409    -716.871    -712.006
  C      557.126    -718.086    -712.140
  N      556.514    -719.302    -712.377
  N      555.056    -716.579    -712.046
  C      554.993    -715.271    -711.864
  N      556.223    -714.741    -711.662
  O      551.647    -710.127    -710.366
  O      550.938    -712.150    -711.795
  H      556.136    -711.950    -714.475
  H      551.241    -709.668    -711.114
  H      560.157    -716.873    -711.730
  H      554.083    -714.690    -711.875
  H      557.652    -713.239    -711.417
  H      554.922    -712.676    -712.730
  H      555.418    -710.315    -712.319
  H      556.368    -710.843    -709.728
  H      554.117    -711.453    -709.000
  H      557.110    -720.053    -712.664
  H      555.538    -719.270    -712.658
  H      554.022    -710.073    -710.112
  P      557.813    -709.406    -712.885
  C      559.778    -708.274    -711.638
  O      559.417    -709.198    -712.652
  O      557.228    -708.126    -712.098
  O      557.361    -709.533    -714.302
  H      557.506    -708.125    -711.160
  H      560.869    -708.318    -711.503
  H      559.294    -708.528    -710.691
  H      559.484    -707.251    -711.940
  H      550.051    -712.636    -707.753
  H      549.403    -712.490    -709.369
  H      550.018    -711.078    -708.544

 3  4  5  6  7  8  9  10  11  12  22  25  29  30  31  32 0
 6-311+G(2d,p)
 ****
 33  36  37 0
 6-311+G(2d,p)
 ****
 1  2  13  14  15  16  17  18  19  20  21  23  24  26 0
 3-21G
 ****
 27  28  34  35  38  39  40  41  42  43  44  45  46  47  48 0
 3-21G
 ****


