%nproc=1
%NoSave
%Mem=1900MB
#P OB98/GEN NMR

erre ene a

0 1
  C     -322.386     -17.805     575.814
  O     -321.045     -17.404     576.170
  P     -319.792     -17.641     575.209
  C     -317.319     -16.876     575.065
  O     -318.469     -17.046     575.907
  C     -316.188     -16.145     575.788
  O     -316.468     -14.718     575.887
  C     -315.967     -16.597     577.232
  O     -315.270     -17.844     577.264
  C     -315.176     -15.410     577.788
  O     -313.769     -15.520     577.441
  C     -315.831     -14.229     577.056
  N     -316.765     -13.495     577.923
  C     -316.223     -12.551     578.791
  O     -314.983     -12.407     578.847
  N     -317.061     -11.819     579.590
  C     -318.338     -12.069     579.574
  N     -319.143     -11.307     580.376
  C     -318.952     -13.129     578.739
  C     -318.119     -13.783     577.953
  O     -319.992     -17.171     573.801
  O     -319.537     -19.232     575.246
  H     -313.723     -15.551     576.460
  H     -319.156     -19.506     574.394
  H     -320.015     -13.314     578.782
  H     -318.480     -14.576     577.297
  H     -315.062     -13.516     576.712
  H     -315.225     -15.344     578.881
  H     -316.926     -16.675     577.763
  H     -315.266     -16.261     575.199
  H     -318.681     -10.586     580.939
  H     -317.637     -16.276     574.183
  H     -320.145     -11.420     580.449
  H     -316.989     -17.858     574.725
  P     -316.090     -19.183     577.614
  C     -316.061     -21.577     576.661
  O     -315.312     -20.411     576.930
  O     -317.552     -19.136     577.345
  O     -315.793     -19.420     579.169
  H     -316.571     -19.851     579.582
  H     -315.589     -22.152     575.871
  H     -317.099     -21.323     576.356
  H     -316.129     -22.193     577.580
  H     -323.058     -17.547     576.606
  H     -322.412     -18.863     575.655
  H     -322.682     -17.302     574.917

 3  4  5  6  7  8  9  10  11  12  13  23  27  28  29  30  32 0
 6-311+G(2d,p)
 ****
 34  35 0
 6-311+G(2d,p)
 ****
 1  2  14  15  16  17  18  19  20  21  22  24  25  26 0
 3-21G
 ****
 31  33  36  37  38  39  40  41  42  43  44  45  46 0
 3-21G
 ****


