%nproc=1
%NoSave
%Mem=1900MB
#P OB98/GEN NMR

erre ene a

0 1
  C      108.756      24.233     331.508
  O      108.424      23.571     332.709
  H      108.231      23.746     330.681
  H      109.832      24.167     331.328
  H      108.449      25.280     331.553
  P      109.069      24.144     334.065
  C      107.233      23.112     335.595
  O      108.601      23.115     335.212
  C      106.400      22.305     334.596
  O      106.857      20.931     334.596
  C      104.904      22.298     334.919
  O      104.158      22.476     333.714
  C      104.656      20.922     335.508
  O      103.308      20.492     335.331
  C      105.718      20.075     334.797
  N      106.073      18.887     335.570
  C      105.644      17.655     335.070
  O      104.985      17.606     334.028
  N      105.921      16.517     335.782
  C      106.519      16.606     336.928
  N      106.745      15.443     337.596
  C      106.948      17.888     337.518
  C      106.700      18.976     336.793
  O      108.196      25.451     334.353
  O      110.539      24.392     334.015
  H      103.106      20.517     334.369
  H      108.617      26.022     335.040
  H      107.431      17.911     338.487
  H      106.979      19.963     337.149
  H      105.357      19.754     333.808
  H      104.859      20.947     336.586
  H      104.620      23.079     335.625
  H      106.586      22.696     333.590
  H      106.427      14.583     337.165
  H      106.870      24.144     335.626
  H      107.175      15.396     338.510
  H      107.141      22.670     336.592
  P      103.648      23.968     333.415
  C      103.440      23.513     330.872
  O      102.784      23.922     332.061
  O      104.982      24.744     332.995
  O      102.959      24.606     334.576
  H      105.330      25.258     333.748
  H      102.746      23.531     330.058
  H      103.818      22.520     330.997
  H      104.251      24.180     330.664

 6  7  8  9  10  11  12  13  14  15  16  26  30  31  32  33  35 0
 6-311+G(2d,p)
 ****
 37  38 0
 6-311+G(2d,p)
 ****
 1  2  3  4  5  17  18  19  20  21  22  23  24  25 0
 3-21G
 ****
 27  28  29  34  36  39  40  41  42  43  44  45  46 0
 3-21G
 ****


