%nproc=1
%NoSave
%Mem=1900MB
#P OB98/GEN NMR

erre ene a

0 1
  C      267.822     583.086     520.434
  O      268.768     583.687     519.568
  H      267.235     583.879     520.908
  H      268.327     582.517     521.216
  H      267.149     582.437     519.870
  P      269.814     582.743     518.805
  C      267.879     581.839     517.346
  O      268.972     581.524     518.201
  C      268.316     581.810     515.881
  O      269.048     580.596     515.603
  C      267.168     581.842     514.880
  O      266.618     583.135     514.783
  C      267.873     581.335     513.627
  O      268.648     582.379     513.021
  C      268.790     580.242     514.212
  N      268.237     578.888     514.124
  C      268.112     578.368     512.833
  O      268.444     579.039     511.852
  N      267.585     577.103     512.688
  C      267.268     576.412     513.732
  N      266.754     575.156     513.531
  C      267.424     576.916     515.119
  C      267.894     578.151     515.238
  O      271.022     582.335     519.584
  O      270.216     583.591     517.501
  H      267.995     582.957     512.563
  H      271.024     584.106     517.667
  H      267.151     576.293     515.968
  H      268.043     578.595     516.211
  H      269.770     580.247     513.707
  H      267.165     580.967     512.872
  H      266.398     581.108     515.162
  H      269.011     582.649     515.713
  H      266.691     574.849     512.561
  H      267.538     582.855     517.616
  H      266.629     574.473     514.257
  H      267.050     581.149     517.503
  P      265.053     583.377     514.534
  C      264.980     584.319     516.928
  O      264.378     583.434     516.007
  O      264.405     582.409     513.594
  O      264.971     584.904     514.060
  H      265.249     584.978     513.110
  H      264.456     584.275     517.860
  H      264.939     585.316     516.543
  H      266.001     584.036     517.079

 6  7  8  9  10  11  12  13  14  15  16  26  30  31  32  33  35 0
 6-311+G(2d,p)
 ****
 37  38 0
 6-311+G(2d,p)
 ****
 1  2  3  4  5  17  18  19  20  21  22  23  24  25 0
 3-21G
 ****
 27  28  29  34  36  39  40  41  42  43  44  45  46 0
 3-21G
 ****


