%nproc=1
%NoSave
%Mem=1900MB
#P OB98/GEN NMR

erre ene a

0 1
  C      845.907     489.849    1074.524
  O      845.962     488.575    1075.133
  H      846.560     490.542    1075.058
  H      846.253     489.769    1073.483
  H      844.887     490.237    1074.519
  P      845.233     488.389    1076.541
  C      847.352     488.185    1078.037
  O      846.225     487.518    1077.464
  C      848.151     487.207    1078.928
  O      847.364     486.960    1080.139
  C      848.451     485.833    1078.265
  O      849.765     485.439    1078.659
  C      847.436     484.921    1078.907
  O      847.849     483.553    1078.937
  C      847.307     485.522    1080.311
  N      845.122     481.869    1083.094
  C      846.419     482.149    1082.847
  N      846.925     483.181    1082.135
  C      845.937     483.995    1081.703
  C      844.579     483.850    1081.904
  C      844.156     482.710    1082.614
  N      842.834     482.374    1082.807
  N      843.867     484.874    1081.265
  C      844.802     485.625    1080.699
  N      846.068     485.127    1080.937
  O      844.051     487.370    1076.191
  O      844.715     489.652    1077.165
  H      848.659     483.490    1079.485
  H      843.282     487.861    1075.888
  H      847.142     481.478    1083.258
  H      844.613     486.483    1080.068
  H      848.125     485.221    1080.974
  H      846.468     484.983    1078.376
  H      848.380     485.868    1077.171
  H      849.066     487.704    1079.232
  H      846.997     489.015    1078.638
  H      842.659     481.477    1083.253
  H      842.127     482.930    1082.365
  H      847.995     488.566    1077.228
  P      850.967     485.750    1077.649
  C      850.874     483.508    1076.287
  O      851.620     484.363    1077.176
  O      852.098     486.389    1078.589
  O      850.589     486.696    1076.526
  H      852.614     487.050    1078.107
  H      851.447     482.631    1076.071
  H      850.668     484.032    1075.377
  H      849.953     483.226    1076.753

 6  7  8  9  10  11  12  13  14  15  25  28  32  33  34  35 0
 6-311+G(2d,p)
 ****
 36  39  40 0
 6-311+G(2d,p)
 ****
 1  2  3  4  5  16  17  18  19  20  21  22  23  24 0
 3-21G
 ****
 26  27  29  30  31  37  38  41  42  43  44  45  46  47 0
 3-21G
 ****
 48 0
 3-21G
 ****


