%nproc=1
%NoSave
%Mem=1900MB
#P OB98/GEN NMR

erre ene a

0 1
  C       60.251     106.298     110.723
  O       61.160     107.193     110.109
  P       61.776     108.366     111.013
  C       60.499     110.390     109.976
  O       60.679     109.530     111.094
  C       59.451     111.455     110.308
  O       58.168     110.839     110.553
  C       59.770     112.251     111.565
  O       60.744     113.250     111.314
  C       58.403     112.813     111.928
  O       58.120     114.005     111.177
  C       57.464     111.665     111.504
  N       56.976     110.891     112.640
  C       55.879     111.420     113.313
  O       55.353     112.488     112.997
  N       55.431     110.702     114.387
  C       55.992     109.562     114.880
  O       55.579     108.991     115.883
  C       57.169     109.063     114.147
  C       57.603     109.743     113.083
  O       62.928     108.991     110.094
  O       62.302     107.919     112.335
  H       57.190     114.239     111.367
  H       63.679     109.273     110.651
  H       54.622     111.056     114.872
  H       57.640     108.159     114.511
  H       58.475     109.399     112.539
  H       56.597     112.068     110.967
  H       58.334     113.079     112.987
  H       60.102     111.575     112.364
  H       59.351     112.122     109.444
  H       60.167     109.800     109.117
  H       61.456     110.856     109.727
  P       61.930     113.397     112.386
  C       60.421     115.001     113.792
  O       61.207     113.831     113.749
  O       62.651     114.724     111.854
  O       62.808     112.193     112.454
  H       62.022     115.345     111.448
  H       59.887     115.160     112.851
  H       61.062     115.862     113.996
  H       59.690     114.904     114.599
  H       59.924     105.574     110.006
  H       59.406     106.843     111.090
  H       60.735     105.800     111.537

 3  4  5  6  7  8  9  10  11  12  13  23  28  29  30  31  32 0
 6-311+G(2d,p)
 ****
 33  34 0
 6-311+G(2d,p)
 ****
 1  2  14  15  16  17  18  19  20  21  22  24  25  26 0
 3-21G
 ****
 27  35  36  37  38  39  40  41  42  43  44  45 0
 3-21G
 ****


