%nproc=1
%NoSave
%Mem=1900MB
#P OB98/GEN NMR

erre ene a

0 1
  C      161.476     123.448     -34.072
  O      161.952     123.159     -35.387
  P      161.004     123.459     -36.645
  C      160.990     120.975     -37.304
  O      160.192     122.118     -37.009
  C      160.187     119.659     -37.167
  O      159.151     119.574     -38.184
  C      161.046     118.396     -37.290
  O      160.486     117.414     -36.400
  C      160.821     117.979     -38.739
  O      161.166     116.627     -38.982
  C      159.337     118.332     -38.890
  N      158.931     118.434     -40.286
  C      159.114     117.310     -41.089
  O      159.703     116.319     -40.634
  N      158.661     117.346     -42.378
  C      158.197     118.452     -42.874
  N      157.745     118.447     -44.155
  C      158.160     119.719     -42.108
  C      158.510     119.629     -40.826
  O      161.657     124.133     -37.804
  O      159.852     124.394     -36.006
  H      162.123     116.509     -38.807
  H      159.571     125.045     -36.682
  H      157.843     120.637     -42.575
  H      158.502     120.495     -40.178
  H      158.706     117.586     -38.397
  H      161.437     118.606     -39.399
  H      162.105     118.545     -37.031
  H      159.693     119.667     -36.193
  H      157.801     117.582     -44.679
  H      161.841     120.945     -36.622
  H      157.321     119.254     -44.591
  H      161.410     121.073     -38.310
  P      161.171     117.203     -34.958
  C      163.188     115.959     -36.026
  O      162.748     117.005     -35.181
  O      160.692     115.721     -34.587
  O      160.763     118.162     -33.884
  H      160.699     115.624     -33.612
  H      164.239     116.139     -36.290
  H      162.603     115.915     -36.946
  H      163.115     114.997     -35.505
  H      162.228     123.190     -33.356
  H      160.590     122.879     -33.880
  H      161.253     124.492     -33.995

 3  4  5  6  7  8  9  10  11  12  13  23  27  28  29  30  32 0
 6-311+G(2d,p)
 ****
 34  35 0
 6-311+G(2d,p)
 ****
 1  2  14  15  16  17  18  19  20  21  22  24  25  26 0
 3-21G
 ****
 31  33  36  37  38  39  40  41  42  43  44  45  46 0
 3-21G
 ****


