%nproc=1
%NoSave
%Mem=1900MB
#P OB98/GEN NMR

erre ene a

0 1
  C     -115.370     155.272     119.047
  O     -114.343     155.136     120.011
  P     -114.367     153.838     120.951
  C     -114.879     154.257     123.473
  O     -115.386     154.137     122.150
  C     -114.777     155.735     123.854
  O     -116.054     156.388     123.680
  C     -114.397     155.963     125.309
  O     -113.005     155.788     125.516
  C     -114.867     157.394     125.531
  O     -113.886     158.336     125.067
  C     -116.135     157.449     124.654
  N     -117.363     157.375     125.438
  C     -117.736     158.542     126.098
  O     -117.070     159.578     126.054
  N     -118.877     158.468     126.845
  C     -119.639     157.352     127.040
  O     -120.625     157.333     127.767
  C     -119.180     156.139     126.341
  C     -118.079     156.204     125.591
  O     -112.931     153.848     121.658
  O     -114.621     152.557     120.230
  H     -113.512     157.964     124.244
  H     -112.614     152.933     121.778
  H     -119.180     159.309     127.310
  H     -119.760     155.235     126.472
  H     -117.716     155.319     125.080
  H     -116.153     158.384     124.079
  H     -115.045     157.612     126.589
  H     -114.974     155.292     125.959
  H     -114.052     156.216     123.186
  H     -113.890     153.794     123.524
  H     -115.545     153.728     124.161
  P     -112.538     155.321     126.980
  C     -111.191     157.223     128.159
  O     -112.447     156.672     127.839
  O     -111.019     154.905     126.691
  O     -113.387     154.232     127.541
  H     -110.618     155.449     125.991
  H     -110.471     157.078     127.349
  H     -110.811     156.757     129.071
  H     -111.311     158.295     128.333
  H     -115.226     156.179     118.498
  H     -116.320     155.301     119.539
  H     -115.341     154.440     118.375

 3  4  5  6  7  8  9  10  11  12  13  23  28  29  30  31  32 0
 6-311+G(2d,p)
 ****
 33  34 0
 6-311+G(2d,p)
 ****
 1  2  14  15  16  17  18  19  20  21  22  24  25  26 0
 3-21G
 ****
 27  35  36  37  38  39  40  41  42  43  44  45 0
 3-21G
 ****


