%nproc=1
%NoSave
%Mem=1900MB
#P OB98/GEN NMR

erre ene a

0 1
  C        4.444      20.224     -13.608
  O        4.891      21.434     -13.025
  P        5.758      21.403     -11.680
  C        8.228      20.715     -11.235
  O        7.046      20.497     -11.974
  C        9.024      19.415     -11.066
  O        8.299      18.567     -10.143
  C        9.192      18.596     -12.341
  O       10.266      17.673     -12.151
  C        7.881      17.844     -12.401
  O        7.959      16.689     -13.232
  C        7.585      17.567     -10.905
  N        6.141      17.638     -10.617
  C        5.298      16.904     -11.445
  O        5.712      16.159     -12.332
  N        3.957      17.119     -11.275
  C        3.407      18.015     -10.408
  O        2.252      18.416     -10.481
  C        4.327      18.576      -9.406
  C        5.638      18.386      -9.570
  O        4.868      20.497     -10.706
  O        6.045      22.738     -11.086
  H        7.058      16.290     -13.249
  H        4.321      21.060     -10.128
  H        3.353      16.697     -11.970
  H        3.909      19.173      -8.608
  H        6.345      18.831      -8.875
  H        7.941      16.574     -10.604
  H        7.109      18.501     -12.821
  H        9.360      19.195     -13.241
  H       10.000      19.642     -10.622
  H        7.970      21.140     -10.261
  H        8.859      21.456     -11.739
  P       10.892      16.972     -13.450
  C       12.064      17.823     -15.569
  O       11.221      18.152     -14.484
  O       10.120      15.824     -14.009
  O       12.349      16.524     -12.952
  H       12.702      15.838     -13.546
  H       11.811      18.462     -16.419
  H       11.949      16.777     -15.864
  H       13.104      18.007     -15.285
  H        3.884      20.440     -14.494
  H        3.822      19.701     -12.912
  H        5.288      19.616     -13.859

 3  4  5  6  7  8  9  10  11  12  13  23  28  29  30  31  32 0
 6-311+G(2d,p)
 ****
 33  34 0
 6-311+G(2d,p)
 ****
 1  2  14  15  16  17  18  19  20  21  22  24  25  26  27 0
 3-21G
 ****
 35  36  37  38  39  40  41  42  43  44  45 0
 3-21G
 ****


