%nproc=1
%NoSave
%Mem=1900MB
#P OB98/GEN NMR

erre ene a

0 1
  C       60.129    -351.772    -412.139
  O       60.624    -350.678    -411.362
  P       60.917    -350.956    -409.811
  C       59.646    -350.565    -407.584
  O       59.549    -350.735    -408.990
  C       58.369    -349.941    -407.000
  O       58.338    -348.506    -407.269
  C       57.079    -350.532    -407.562
  O       56.097    -350.497    -406.517
  C       56.679    -349.531    -408.632
  O       55.294    -349.649    -408.970
  C       57.094    -348.223    -407.951
  N       55.367    -343.618    -409.367
  C       54.997    -344.469    -408.370
  N       55.496    -345.686    -408.071
  C       56.505    -345.991    -408.911
  C       56.984    -345.247    -409.971
  C       56.369    -344.010    -410.196
  N       56.720    -343.160    -411.224
  N       58.003    -345.925    -410.623
  C       58.123    -347.071    -409.966
  N       57.266    -347.140    -408.903
  O       61.815    -349.695    -409.378
  O       61.626    -352.239    -409.545
  H       54.782    -349.746    -408.131
  H       62.742    -349.979    -409.242
  H       54.188    -344.107    -407.723
  H       58.802    -347.856    -410.224
  H       56.352    -347.884    -407.208
  H       57.270    -349.704    -409.542
  H       57.175    -351.545    -407.959
  H       58.395    -350.066    -405.905
  H       60.503    -349.938    -407.331
  H       56.209    -342.293    -411.335
  H       57.427    -343.453    -411.876
  H       59.859    -351.546    -407.116
  P       55.097    -351.756    -406.433
  C       52.627    -352.184    -407.122
  O       53.695    -351.269    -407.049
  O       54.788    -351.890    -404.863
  O       55.651    -353.022    -407.007
  H       54.546    -352.798    -404.646
  H       51.699    -351.666    -406.868
  H       52.763    -353.023    -406.436
  H       52.550    -352.565    -408.142
  H       59.977    -351.452    -413.149
  H       59.200    -352.110    -411.728
  H       60.839    -352.572    -412.121

 3  4  5  6  7  8  9  10  11  12  22  25  29  30  31  32 0
 6-311+G(2d,p)
 ****
 33  36  37 0
 6-311+G(2d,p)
 ****
 1  2  13  14  15  16  17  18  19  20  21  23  24  26 0
 3-21G
 ****
 27  28  34  35  38  39  40  41  42  43  44  45  46  47  48 0
 3-21G
 ****


