%nproc=1
%NoSave
%Mem=1900MB
#P OB98/GEN NMR

erre ene a

0 1
  C      628.659     425.336     -72.933
  O      627.264     425.260     -72.717
  H      629.171     425.196     -71.978
  H      628.920     426.323     -73.324
  H      628.991     424.559     -73.625
  P      626.286     425.251     -73.984
  C      626.097     422.687     -73.743
  O      626.354     423.776     -74.614
  C      626.237     421.356     -74.484
  O      625.100     421.201     -75.384
  C      627.516     421.234     -75.342
  O      627.874     419.843     -75.374
  C      627.002     421.710     -76.688
  O      627.899     421.448     -77.736
  C      625.645     420.973     -76.703
  N      624.714     421.418     -77.739
  C      624.643     420.670     -78.909
  O      625.300     419.660     -79.130
  N      623.754     421.128     -79.857
  C      622.950     422.221     -79.731
  O      622.158     422.568     -80.593
  C      623.078     422.972     -78.477
  C      623.939     422.547     -77.553
  O      626.481     426.363     -74.958
  O      624.823     425.287     -73.332
  H      624.462     426.196     -73.389
  H      627.511     421.766     -78.577
  H      623.687     420.591     -80.697
  H      622.465     423.862     -78.354
  H      624.050     423.073     -76.612
  H      625.811     419.889     -76.811
  H      626.860     422.786     -76.680
  H      628.348     421.818     -74.947
  H      626.173     420.536     -73.750
  H      625.075     422.785     -73.352
  H      626.799     422.722     -72.898
  P      629.369     419.311     -75.147
  C      628.507     417.363     -73.683
  O      629.397     418.455     -73.776
  O      630.408     420.382     -75.209
  O      629.605     418.208     -76.295
  H      630.560     418.143     -76.483
  H      628.626     416.886     -72.733
  H      628.719     416.662     -74.463
  H      627.501     417.713     -73.782

 6  7  8  9  10  11  12  13  14  15  16  27  31  32  33  34  35 0
 6-311+G(2d,p)
 ****
 36  37 0
 6-311+G(2d,p)
 ****
 1  2  3  4  5  17  18  19  20  21  22  23  24  25 0
 3-21G
 ****
 26  28  29  30  38  39  40  41  42  43  44  45 0
 3-21G
 ****


