%nproc=1
%NoSave
%Mem=1900MB
#P OB98/GEN NMR

erre ene a

0 1
  C      110.168      87.924    -153.283
  O      110.211      87.212    -152.040
  P      108.819      86.896    -151.300
  C      107.995      84.781    -152.566
  O      108.543      85.320    -151.372
  C      106.744      83.951    -152.257
  O      105.985      83.657    -153.445
  C      107.053      82.593    -151.634
  O      107.288      82.699    -150.232
  C      105.756      81.845    -151.894
  O      104.763      82.225    -150.919
  C      105.356      82.365    -153.279
  N      103.765      79.264    -157.035
  C      103.088      79.950    -156.088
  N      103.581      80.740    -155.115
  C      104.921      80.796    -155.179
  C      105.747      80.141    -156.086
  C      105.112      79.345    -157.055
  N      105.805      78.645    -158.016
  N      107.076      80.431    -155.842
  C      107.054      81.254    -154.810
  N      105.776      81.499    -154.371
  O      107.735      87.510    -152.308
  O      108.706      87.507    -149.944
  H      104.062      81.546    -150.945
  H      106.981      87.869    -151.807
  H      102.009      79.858    -156.118
  H      107.926      81.698    -154.355
  H      104.270      82.508    -153.384
  H      105.872      80.759    -151.821
  H      107.885      82.102    -152.154
  H      106.111      84.531    -151.569
  H      108.738      84.164    -153.080
  H      105.282      78.115    -158.691
  H      106.814      78.722    -158.050
  H      107.752      85.603    -153.253
  P      108.649      82.071    -149.667
  C      109.694      84.294    -148.825
  O      109.123      83.043    -148.485
  O      109.695      82.346    -150.849
  O      108.559      80.618    -149.329
  H      110.375      81.649    -150.868
  H      109.672      84.933    -147.937
  H      109.124      84.784    -149.623
  H      110.730      84.156    -149.135
  H      111.163      88.058    -153.652
  H      109.712      88.880    -153.131
  H      109.597      87.365    -153.994

 3  4  5  6  7  8  9  10  11  12  22  25  29  30  31  32 0
 6-311+G(2d,p)
 ****
 33  36  37 0
 6-311+G(2d,p)
 ****
 1  2  13  14  15  16  17  18  19  20  21  23  24  26 0
 3-21G
 ****
 27  28  34  35  38  39  40  41  42  43  44  45  46  47  48 0
 3-21G
 ****


