%nproc=1
%NoSave
%Mem=1900MB
#P OB98/GEN NMR

erre ene a

0 1
  C       94.660    -251.194     654.813
  O       95.320    -250.026     655.268
  H       94.447    -251.835     655.669
  H       95.300    -251.744     654.111
  H       93.720    -250.925     654.323
  P       95.756    -248.961     654.147
  C       97.014    -249.292     651.905
  O       96.821    -249.754     653.233
  C       98.450    -249.556     651.463
  O       98.796    -250.938     651.663
  C       98.710    -249.274     649.981
  O       98.967    -247.890     649.779
  C       99.961    -250.107     649.741
  O      101.119    -249.386     650.202
  C       99.717    -251.344     650.620
  N      100.640    -256.149     649.062
  C      101.468    -255.194     649.564
  N      101.157    -253.919     649.909
  C       99.858    -253.673     649.693
  C       98.905    -254.550     649.185
  C       99.345    -255.845     648.868
  N       98.507    -256.813     648.351
  N       97.665    -253.934     649.095
  C       97.865    -252.727     649.605
  N       99.173    -252.507     649.951
  O       96.184    -247.626     654.656
  O       94.448    -248.950     653.213
  H      101.181    -248.575     649.658
  H       94.097    -249.848     653.107
  H      102.497    -255.494     649.711
  H       97.077    -251.992     649.768
  H      100.643    -251.678     651.122
  H      100.121    -250.323     648.679
  H       97.898    -249.651     649.348
  H       99.125    -248.960     652.085
  H       96.798    -248.223     651.845
  H       98.940    -257.643     647.976
  H       97.571    -256.539     648.088
  H       96.310    -249.828     651.266
  P       99.140    -247.288     648.302
  C      100.924    -247.511     646.456
  O      100.586    -247.790     647.816
  O       98.902    -245.817     648.199
  O       98.133    -248.152     647.396
  H       97.976    -247.697     646.557
  H      101.903    -247.889     646.247
  H      100.908    -246.453     646.294
  H      100.214    -247.982     645.808

 6  7  8  9  10  11  12  13  14  15  25  28  32  33  34  35 0
 6-311+G(2d,p)
 ****
 36  39  40 0
 6-311+G(2d,p)
 ****
 1  2  3  4  5  16  17  18  19  20  21  22  23  24 0
 3-21G
 ****
 26  27  29  30  31  37  38  41  42  43  44  45  46  47 0
 3-21G
 ****
 48 0
 3-21G
 ****


