%nproc=1
%NoSave
%Mem=1900MB
#P OB98/GEN NMR

erre ene a

0 1
  C     -893.380    -776.350    -640.990
  O     -893.620    -777.642    -641.527
  H     -894.060    -776.181    -640.161
  H     -893.560    -775.584    -641.751
  H     -892.350    -776.281    -640.624
  P     -892.610    -778.161    -642.652
  C     -891.600    -780.403    -641.709
  O     -891.480    -778.996    -641.865
  C     -891.870    -780.782    -640.255
  O     -893.140    -780.193    -639.854
  C     -891.930    -782.291    -640.003
  O     -891.380    -782.564    -638.713
  C     -893.430    -782.577    -639.981
  O     -893.730    -783.771    -639.260
  C     -893.980    -781.288    -639.346
  N     -895.380    -781.066    -639.656
  C     -896.310    -781.570    -638.730
  O     -895.930    -782.153    -637.720
  N     -897.670    -781.412    -638.990
  C     -898.030    -780.881    -640.099
  N     -899.380    -780.771    -640.316
  C     -897.080    -780.380    -641.128
  C     -895.810    -780.484    -640.840
  O     -891.840    -776.801    -643.061
  O     -893.240    -778.864    -643.799
  H     -894.660    -784.021    -639.417
  H     -891.590    -776.254    -642.289
  H     -897.470    -779.946    -642.050
  H     -895.040    -780.157    -641.533
  H     -893.850    -781.296    -638.260
  H     -893.800    -782.703    -641.001
  H     -891.410    -782.864    -640.757
  H     -891.110    -780.310    -639.620
  H     -900.000    -781.146    -639.573
  H     -890.680    -780.904    -642.058
  H     -899.780    -780.428    -641.160
  H     -892.430    -780.742    -642.354
  P     -889.910    -783.193    -638.614
  C     -888.660    -781.446    -637.161
  O     -888.820    -782.026    -638.459
  O     -889.580    -784.252    -639.616
  O     -889.920    -783.848    -637.132
  H     -889.460    -784.702    -637.191
  H     -887.907    -780.687    -637.200
  H     -888.366    -782.204    -636.465
  H     -889.587    -781.013    -636.847

 6  7  8  9  10  11  12  13  14  15  16  26  30  31  32  33  35 0
 6-311+G(2d,p)
 ****
 37  38 0
 6-311+G(2d,p)
 ****
 1  2  3  4  5  17  18  19  20  21  22  23  24  25 0
 3-21G
 ****
 27  28  29  34  36  39  40  41  42  43  44  45  46 0
 3-21G
 ****


