%nproc=1
%NoSave
%Mem=1900MB
#P OB98/GEN NMR

erre ene a

0 1
  C     -898.420    -899.000    -898.135
  O     -898.090    -898.030    -899.095
  H     -898.130    -900.000    -898.465
  H     -899.500    -898.980    -897.915
  H     -897.860    -898.810    -897.165
  P     -898.120    -896.520    -898.655
  C     -895.560    -895.950    -898.555
  O     -896.750    -896.220    -897.805
  C     -894.510    -895.300    -897.645
  O     -895.090    -894.170    -896.945
  C     -893.940    -896.260    -896.535
  O     -892.520    -896.020    -896.395
  C     -894.690    -895.830    -895.305
  O     -894.000    -896.160    -894.085
  C     -894.870    -894.330    -895.545
  N     -896.100    -892.370    -891.065
  C     -894.870    -892.740    -891.585
  N     -893.820    -892.540    -890.755
  N     -894.690    -893.260    -892.755
  C     -895.820    -893.340    -893.475
  C     -897.120    -893.020    -893.115
  C     -897.320    -892.500    -891.765
  O     -898.410    -892.150    -891.225
  N     -898.040    -893.280    -894.115
  C     -897.330    -893.780    -895.065
  N     -895.950    -893.810    -894.775
  O     -899.260    -896.460    -897.545
  O     -898.410    -895.530    -899.735
  H     -893.290    -895.530    -893.935
  H     -900.000    -895.890    -897.815
  H     -896.210    -892.000    -890.105
  H     -897.710    -894.130    -896.055
  H     -893.950    -893.790    -895.275
  H     -895.640    -896.390    -895.235
  H     -893.880    -892.090    -889.845
  H     -894.100    -897.350    -896.815
  H     -892.880    -892.740    -891.135
  H     -893.650    -894.900    -898.265
  H     -895.780    -895.270    -899.375
  H     -895.160    -896.910    -898.975
  P     -891.520    -897.240    -896.615
  C     -890.770    -896.730    -898.995
  O     -891.420    -897.660    -898.165
  O     -892.360    -898.550    -895.945
  O     -890.210    -897.100    -895.895
  H     -892.010    -898.750    -895.065
  H     -890.755    -897.098    -900.000
  H     -889.767    -896.586    -898.653
  H     -891.294    -895.798    -898.965

 6  7  8  9  10  11  12  13  14  15  26  29  33  34 0
 6-311+G(2d,p)
 ****
 36  38  39  40  41 0
 6-311+G(2d,p)
 ****
 1  2  3  4  5  16  17  18  19  20  21  22  23  24  25 0
 3-21G
 ****
 27  28  30  31  32  35  37  42  43  44  45  46  47 0
 3-21G
 ****
 48  49 0
 3-21G
 ****


