%nproc=1
%NoSave
%Mem=1900MB
#P OB98/GEN NMR

erre ene a

0 1
  C      367.929     156.867     165.117
  O      366.990     157.722     164.494
  H      367.635     155.823     164.982
  H      368.908     157.022     164.653
  H      368.002     157.099     166.183
  P      365.474     157.624     165.007
  C      364.771     156.309     162.885
  O      364.822     156.332     164.307
  C      363.652     155.379     162.422
  O      364.070     154.008     162.652
  C      362.302     155.592     163.128
  O      361.284     155.889     162.170
  C      361.989     154.242     163.761
  O      360.614     153.877     163.658
  C      362.890     153.276     162.997
  N      361.276     148.658     164.421
  C      360.970     149.419     163.348
  N      361.512     150.593     162.970
  C      362.490     150.956     163.815
  C      362.929     150.274     164.937
  C      362.262     149.078     165.244
  N      362.541     148.327     166.367
  N      363.953     150.969     165.562
  C      364.095     152.073     164.855
  N      363.218     152.119     163.803
  O      364.756     158.852     164.269
  O      365.299     157.693     166.488
  H      360.430     153.739     162.714
  H      364.226     159.358     164.914
  H      360.171     149.039     162.711
  H      364.775     152.882     165.087
  H      362.424     152.925     162.068
  H      362.258     154.280     164.822
  H      362.344     156.381     163.887
  H      363.535     155.497     161.336
  H      365.725     155.944     162.491
  H      361.936     147.547     166.569
  H      363.199     148.692     167.040
  H      364.611     157.326     162.519
  P      360.626     157.355     162.247
  C      358.209     156.387     162.311
  O      359.190     157.199     162.947
  O      360.258     157.667     160.721
  O      361.525     158.392     162.830
  H      360.253     158.632     160.567
  H      357.314     156.384     162.897
  H      358.578     155.387     162.220
  H      357.997     156.779     161.338

 6  7  8  9  10  11  12  13  14  15  25  28  32  33  34  35 0
 6-311+G(2d,p)
 ****
 36  39  40 0
 6-311+G(2d,p)
 ****
 1  2  3  4  5  16  17  18  19  20  21  22  23  24 0
 3-21G
 ****
 26  27  29  30  31  37  38  41  42  43  44  45  46  47  48 0
 3-21G
 ****


