%nproc=1
%NoSave
%Mem=1900MB
#P OB98/GEN NMR

erre ene a

0 1
  C      547.718    -266.454     -78.908
  O      546.821    -265.371     -78.714
  P      545.942    -265.186     -77.403
  C      544.506    -266.720     -75.857
  O      545.164    -266.574     -77.110
  C      542.969    -266.737     -75.990
  O      542.570    -267.777     -76.913
  C      542.341    -267.096     -74.639
  O      542.130    -266.091     -73.659
  C      541.086    -267.912     -74.989
  O      539.898    -267.129     -74.976
  C      541.392    -268.413     -76.408
  N      539.267    -272.963     -75.704
  C      538.663    -271.720     -75.764
  N      537.364    -271.680     -75.423
  N      539.287    -270.635     -76.125
  C      540.602    -270.818     -76.347
  C      541.324    -272.008     -76.335
  C      540.600    -273.199     -75.989
  O      541.124    -274.309     -75.820
  N      542.656    -271.796     -76.552
  C      542.774    -270.489     -76.653
  N      541.564    -269.851     -76.496
  O      545.189    -263.906     -77.268
  O      547.071    -265.207     -76.247
  H      539.757    -266.803     -74.068
  H      546.788    -264.596     -75.530
  H      538.748    -273.751     -75.349
  H      543.709    -269.956     -76.795
  H      540.573    -268.146     -77.085
  H      540.939    -268.718     -74.259
  H      536.887    -272.467     -74.997
  H      543.013    -267.816     -74.149
  H      536.925    -270.771     -75.294
  H      542.611    -265.800     -76.416
  H      544.835    -265.894     -75.218
  H      544.837    -267.648     -75.386
  P      541.632    -266.316     -72.158
  C      539.519    -267.338     -71.106
  O      540.056    -266.571     -72.184
  O      541.751    -264.870     -71.476
  O      542.418    -267.322     -71.374
  H      541.806    -264.958     -70.514
  H      538.540    -267.705     -71.382
  H      539.448    -266.712     -70.215
  H      540.182    -268.207     -70.899
  H      548.191    -266.359     -79.863
  H      547.177    -267.376     -78.868
  H      548.462    -266.443     -78.139

 3  4  5  6  7  8  9  10  11  12  23  26  30  31 0
 6-311+G(2d,p)
 ****
 33  35  36  37  38 0
 6-311+G(2d,p)
 ****
 1  2  13  14  15  16  17  18  19  20  21  22  24  25 0
 3-21G
 ****
 27  28  29  32  34  39  40  41  42  43  44  45  46  47  48  49 0
 3-21G
 ****


