%nproc=1
%NoSave
%Mem=1900MB
#P OB98/GEN NMR

erre ene a

0 1
  C     -226.801     290.119     270.100
  O     -227.305     291.367     269.654
  H     -226.508     289.530     269.228
  H     -227.564     289.568     270.655
  H     -225.923     290.275     270.728
  P     -228.058     292.299     270.718
  C     -230.078     290.706     270.920
  O     -229.626     291.996     270.518
  C     -231.472     290.407     270.368
  O     -231.954     289.141     270.866
  C     -232.532     291.419     270.775
  O     -232.360     292.709     270.238
  C     -233.816     290.660     270.491
  O     -234.195     290.727     269.119
  C     -233.403     289.209     270.854
  N     -233.972     288.772     272.121
  C     -235.305     288.383     272.090
  O     -236.002     288.423     271.073
  N     -235.841     287.980     273.285
  C     -235.196     287.972     274.488
  O     -235.740     287.616     275.527
  C     -233.800     288.428     274.468
  C     -233.257     288.797     273.300
  O     -227.712     293.760     270.660
  O     -227.736     291.619     272.129
  H     -233.392     290.557     268.590
  H     -227.936     292.229     272.877
  H     -236.807     287.685     273.278
  H     -233.258     288.445     275.404
  H     -232.222     289.137     273.260
  H     -233.735     288.512     270.071
  H     -234.658     291.032     271.078
  H     -232.484     291.547     271.870
  H     -231.395     290.330     269.276
  H     -230.114     290.694     272.019
  H     -229.364     289.949     270.584
  P     -232.352     294.045     271.110
  C     -234.201     295.053     269.561
  O     -232.959     295.238     270.219
  O     -231.122     294.319     271.908
  O     -233.558     293.760     272.152
  H     -233.311     294.183     272.999
  H     -234.452     295.940     269.018
  H     -234.962     294.851     270.286
  H     -234.126     294.229     268.883

 6  7  8  9  10  11  12  13  14  15  16  26  31  32  33  34  35 0
 6-311+G(2d,p)
 ****
 36  37 0
 6-311+G(2d,p)
 ****
 1  2  3  4  5  17  18  19  20  21  22  23  24  25 0
 3-21G
 ****
 27  28  29  30  38  39  40  41  42  43  44  45 0
 3-21G
 ****


