%nproc=1
%NoSave
%Mem=1900MB
#P OB98/GEN NMR

erre ene a

0 1
  C      272.767     -58.364     312.735
  O      272.126     -58.945     313.856
  P      272.219     -58.268     315.299
  C      270.053     -56.867     314.820
  O      270.778     -57.709     315.688
  C      268.603     -56.766     315.317
  O      267.878     -57.963     314.973
  C      268.543     -56.596     316.834
  O      268.452     -55.222     317.178
  C      267.309     -57.398     317.203
  O      266.116     -56.622     316.981
  C      267.382     -58.570     316.199
  N      268.253     -59.715     316.525
  C      267.769     -60.737     317.340
  O      266.628     -60.770     317.788
  N      268.667     -61.729     317.640
  C      269.952     -61.813     317.182
  O      270.804     -62.562     317.644
  C      270.305     -60.863     316.125
  C      269.463     -59.865     315.864
  O      273.069     -56.941     315.022
  O      272.833     -59.114     316.367
  H      266.232     -55.773     317.451
  H      274.004     -57.075     315.262
  H      268.367     -62.400     318.343
  H      271.260     -60.980     315.628
  H      269.724     -59.121     315.109
  H      266.383     -58.973     315.989
  H      267.311     -57.655     318.265
  H      269.417     -57.062     317.304
  H      268.116     -55.918     314.818
  H      270.081     -57.264     313.800
  H      270.511     -55.870     314.791
  P      269.247     -54.675     318.453
  C      271.261     -54.041     316.999
  O      270.258     -53.570     317.877
  O      269.865     -55.719     319.328
  O      268.137     -53.824     319.237
  H      267.754     -54.362     319.962
  H      271.757     -53.183     316.543
  H      270.821     -54.661     316.212
  H      271.996     -54.623     317.560
  H      272.585     -58.966     311.869
  H      273.820     -58.308     312.916
  H      272.380     -57.380     312.573

 3  4  5  6  7  8  9  10  11  12  13  23  28  29  30  31  32 0
 6-311+G(2d,p)
 ****
 33  34 0
 6-311+G(2d,p)
 ****
 1  2  14  15  16  17  18  19  20  21  22  24  25  26  27 0
 3-21G
 ****
 35  36  37  38  39  40  41  42  43  44  45 0
 3-21G
 ****


