%nproc=1
%NoSave
%Mem=1900MB
#P OB98/GEN NMR

erre ene a

0 1
  C     -160.894     131.413    -142.439
  O     -162.107     130.687    -142.403
  H     -160.069     130.711    -142.581
  H     -160.748     131.947    -141.496
  H     -160.902     132.122    -143.272
  P     -163.447     131.547    -142.217
  C     -163.266     131.345    -139.625
  O     -164.047     131.129    -140.790
  C     -164.151     131.830    -138.470
  O     -164.675     133.149    -138.806
  C     -165.364     130.928    -138.196
  O     -165.695     131.044    -136.801
  C     -166.443     131.597    -139.032
  O     -167.723     131.127    -138.678
  C     -166.116     133.059    -138.740
  N     -169.186     137.122    -139.187
  C     -168.716     136.465    -138.105
  N     -167.893     135.398    -138.064
  C     -167.532     135.028    -139.305
  C     -167.923     135.605    -140.501
  C     -168.796     136.703    -140.414
  N     -169.283     137.369    -141.514
  N     -167.349     134.944    -141.572
  C     -166.626     133.986    -141.028
  N     -166.713     133.993    -139.664
  O     -164.459     130.885    -143.265
  O     -163.302     133.016    -142.432
  H     -167.952     131.396    -137.763
  H     -164.447     131.387    -144.101
  H     -169.049     136.846    -137.143
  H     -166.034     133.259    -141.571
  H     -166.420     133.350    -137.728
  H     -166.307     131.371    -140.095
  H     -165.189     129.877    -138.442
  H     -163.534     131.955    -137.573
  H     -162.505     132.099    -139.851
  H     -162.773     130.411    -139.338
  H     -169.918     138.137    -141.366
  H     -169.015     137.056    -142.436
  P     -164.898     130.148    -135.731
  C     -165.907     127.833    -136.414
  O     -165.762     128.833    -135.417
  O     -165.086     130.996    -134.382
  O     -163.450     129.927    -136.019
  H     -164.331     130.831    -133.786
  H     -166.510     127.035    -136.034
  H     -164.943     127.455    -136.683
  H     -166.378     128.255    -137.277

 6  7  8  9  10  11  12  13  14  15  25  28  32  33  34  35 0
 6-311+G(2d,p)
 ****
 36  37  40 0
 6-311+G(2d,p)
 ****
 1  2  3  4  5  16  17  18  19  20  21  22  23  24 0
 3-21G
 ****
 26  27  29  30  31  38  39 41  42  43  44  45  46  47  48 0
 3-21G
 ****


