%nproc=1
%NoSave
%Mem=1900MB
#P OB98/GEN NMR

erre ene a

0 1
  C       -2.306     -19.567       5.101
  O       -2.655     -20.647       4.253
  P       -3.694     -20.362       3.061
  C       -5.975     -20.422       4.319
  O       -5.065     -21.092       3.462
  C       -6.473     -21.365       5.416
  O       -7.412     -20.643       6.254
  C       -7.193     -22.619       4.907
  O       -6.920     -23.667       5.845
  C       -8.657     -22.231       4.989
  O       -9.523     -23.360       5.032
  C       -8.653     -21.381       6.254
  N      -11.299     -18.154       9.111
  C      -10.265     -19.004       9.461
  N       -9.842     -18.935      10.741
  N       -9.698     -19.840       8.632
  C      -10.217     -19.783       7.383
  C      -11.262     -19.016       6.925
  C      -11.855     -18.069       7.841
  O      -12.712     -17.239       7.552
  N      -11.560     -19.300       5.619
  C      -10.643     -20.179       5.265
  N       -9.779     -20.468       6.286
  O       -3.122     -21.258       1.868
  O       -3.858     -18.926       2.675
  H       -9.312     -23.929       4.264
  H       -2.535     -20.737       1.287
  H      -11.684     -17.519       9.788
  H      -10.553     -20.632       4.291
  H       -8.692     -21.987       7.168
  H       -8.929     -21.632       4.112
  H      -10.212     -18.293      11.424
  H       -6.890     -22.920       3.900
  H       -9.064     -19.523      11.015
  H       -5.620     -21.642       6.046
  H       -6.835     -20.088       3.730
  H       -5.491     -19.542       4.753
  P       -6.333     -25.046       5.279
  C       -8.451     -26.229       6.183
  O       -7.042     -26.238       6.076
  O       -4.836     -25.059       5.854
  O       -6.328     -25.161       3.789
  H       -4.248     -25.518       5.227
  H       -8.795     -27.248       6.377
  H       -8.923     -25.867       5.266
  H       -8.747     -25.592       7.019
  H       -1.612     -19.905       5.842
  H       -3.186     -19.192       5.581
  H       -1.857     -18.788       4.520

 3  4  5  6  7  8  9  10  11  12  23  26  30  31 0
 6-311+G(2d,p)
 ****
 33  35  36  37  38 0
 6-311+G(2d,p)
 ****
 1  2  13  14  15  16  17  18  19  20  21  22  24  25 0
 3-21G
 ****
 27  28  29  32  34  39  40  41  42  43  44  45  46  47  48  49 0
 3-21G
 ****


