%nproc=1
%NoSave
%Mem=1900MB
#P OB98/GEN NMR

erre ene a

0 1
  C     -240.644     178.952     -13.936
  O     -240.085     178.159     -12.910
  H     -241.282     178.321     -14.560
  H     -239.851     179.370     -14.560
  H     -241.250     179.759     -13.513
  P     -239.233     178.910     -11.776
  C     -240.960     178.985      -9.837
  O     -240.289     179.704     -10.859
  C     -240.416     179.380      -8.461
  O     -240.634     180.802      -8.267
  C     -241.084     178.639      -7.302
  O     -240.093     178.348      -6.314
  C     -242.071     179.649      -6.743
  O     -242.384     179.420      -5.372
  C     -241.345     180.973      -7.025
  N     -242.284     182.092      -7.088
  C     -242.804     182.544      -5.874
  O     -242.480     181.999      -4.818
  N     -243.726     183.561      -5.884
  C     -244.155     184.029      -7.015
  N     -245.091     185.013      -6.961
  C     -243.682     183.535      -8.323
  C     -242.751     182.581      -8.286
  O     -238.495     180.079     -12.580
  O     -238.280     178.049     -11.017
  H     -242.564     178.464      -5.255
  H     -237.626     180.285     -12.187
  H     -244.091     183.936      -9.241
  H     -242.349     182.152      -9.199
  H     -240.603     181.180      -6.243
  H     -243.007     179.603      -7.317
  H     -241.574     177.709      -7.607
  H     -239.332     179.218      -8.458
  H     -245.404     185.314      -6.042
  H     -240.794     177.912      -9.988
  H     -245.528     185.420      -7.776
  H     -242.035     179.185      -9.895
  P     -240.000     176.829      -5.805
  C     -237.456     176.394      -6.101
  O     -238.776     176.124      -6.561
  O     -241.293     176.144      -6.453
  O     -239.990     176.694      -4.318
  H     -241.954     175.957      -5.760
  H     -236.752     175.855      -6.701
  H     -237.364     176.086      -5.080
  H     -237.260     177.443      -6.176

 6  7  8  9  10  11  12  13  14  15  16  26  30  31  32  33  35 0
 6-311+G(2d,p)
 ****
 37  38 0
 6-311+G(2d,p)
 ****
 1  2  3  4  5  17  18  19  20  21  22  23  24  25 0
 3-21G
 ****
 27  28  29  34  36  39  40  41  42  43  44  45  46 0
 3-21G
 ****


