%nproc=1
%NoSave
%Mem=1900MB
#P OB98/GEN NMR

erre ene a

0 1
  C       -9.715     261.625     -61.726
  O      -10.609     260.613     -61.298
  P      -12.176     260.846     -61.571
  C      -13.983     262.434     -60.590
  O      -12.685     261.869     -60.444
  C      -14.044     263.845     -60.004
  O      -13.167     264.709     -60.765
  C      -15.442     264.465     -60.012
  O      -15.588     265.237     -58.818
  C      -15.405     265.404     -61.204
  O      -16.360     266.456     -61.077
  C      -13.936     265.854     -61.185
  N      -13.493     266.348     -62.484
  C      -13.265     267.723     -62.592
  O      -13.514     268.465     -61.644
  N      -12.813     268.227     -63.786
  C      -12.702     267.444     -64.813
  N      -12.246     267.988     -65.973
  C      -13.051     266.009     -64.774
  C      -13.414     265.531     -63.586
  O      -12.826     259.453     -61.127
  O      -12.514     261.206     -62.981
  H      -17.224     266.056     -60.833
  H      -13.616     259.252     -61.665
  H      -12.976     265.407     -65.669
  H      -13.667     264.485     -63.456
  H      -13.786     266.646     -60.441
  H      -15.625     264.848     -62.124
  H      -16.239     263.716     -60.070
  H      -13.654     263.806     -58.979
  H      -12.028     268.977     -65.979
  H      -14.705     261.810     -60.056
  H      -12.130     267.455     -66.823
  H      -14.259     262.442     -61.650
  P      -17.033     265.267     -58.125
  C      -19.027     266.866     -58.372
  O      -17.891     266.303     -58.999
  O      -16.733     266.132     -56.806
  O      -17.683     263.968     -57.780
  H      -17.533     266.174     -56.252
  H      -19.434     267.646     -59.020
  H      -18.755     267.311     -57.413
  H      -19.791     266.096     -58.226
  H       -8.712     261.341     -61.483
  H       -9.955     262.544     -61.234
  H       -9.802     261.754     -62.785

 3  4  5  6  7  8  9  10  11  12  13  21  23  27  28  29  30  32 0
 6-311+G(2d,p)
 ****
 34  35 0
 6-311+G(2d,p)
 ****
 1  2  14  15  16  17  18  19  20  22  24  25  26 0
 3-21G
 ****
 31  33  36  37  38  39  40  41  42  43  44  45  46 0
 3-21G
 ****


