%nproc=1
%NoSave
%Mem=1900MB
#P OB98/GEN NMR

erre ene a

0 1
  C     -106.521     126.898     -31.120
  O     -107.020     127.974     -31.891
  H     -105.866     127.297     -30.341
  H     -105.941     126.224     -31.756
  H     -107.341     126.349     -30.648
  P     -108.184     127.648     -32.944
  C     -110.391     128.838     -33.638
  O     -109.125     128.949     -33.000
  C     -111.319     129.951     -33.153
  O     -111.732     129.652     -31.789
  C     -110.670     131.344     -33.140
  O     -111.667     132.308     -33.499
  C     -110.296     131.535     -31.682
  O     -110.162     132.894     -31.293
  C     -111.462     130.819     -30.989
  N     -111.154     130.452     -29.607
  C     -111.561     131.328     -28.608
  O     -112.234     132.342     -28.792
  N     -111.163     130.999     -27.336
  C     -110.400     129.923     -26.984
  O     -110.058     129.695     -25.829
  C     -109.993     129.042     -28.085
  C     -110.381     129.340     -29.327
  O     -109.080     126.573     -32.168
  O     -107.725     127.157     -34.275
  H     -108.763     125.669     -32.351
  H     -109.372     133.252     -31.749
  H     -111.450     131.624     -26.599
  H     -109.377     128.182     -27.844
  H     -110.078     128.723     -30.166
  H     -112.359     131.446     -31.012
  H     -109.348     131.026     -31.471
  H     -109.806     131.442     -33.803
  H     -112.225     129.947     -33.770
  H     -110.837     127.870     -33.391
  H     -110.254     128.899     -34.723
  P     -111.479     133.080     -34.895
  C     -113.362     133.983     -36.481
  O     -112.864     133.844     -35.156
  O     -111.497     131.859     -35.926
  O     -110.251     133.927     -34.933
  H     -112.097     131.142     -35.661
  H     -114.289     134.516     -36.459
  H     -113.518     133.014     -36.907
  H     -112.654     134.523     -37.073

 6  7  8  9  10  11  12  13  14  15  16  27  31  32  33  34  35 0
 6-311+G(2d,p)
 ****
 36  37 0
 6-311+G(2d,p)
 ****
 1  2  3  4  5  17  18  19  20  21  22  23  24  25 0
 3-21G
 ****
 26  28  29  30  38  39  40  41  42  43  44  45 0
 3-21G
 ****


