%nproc=1
%NoSave
%Mem=1900MB
#P OB98/GEN NMR

erre ene a

0 1
  C     -188.870     490.140     226.051
  O     -187.892     490.640     225.173
  P     -186.323     490.443     225.388
  C     -186.298     488.234     223.988
  O     -185.978     488.889     225.210
  C     -185.025     487.857     223.216
  O     -185.399     487.090     222.047
  C     -184.272     489.106     222.713
  O     -182.861     489.031     222.852
  C     -184.830     489.285     221.306
  O     -184.006     490.077     220.466
  C     -185.041     487.843     220.869
  N     -186.246     488.200     215.943
  C     -185.006     488.271     216.538
  N     -183.984     488.662     215.745
  N     -184.794     488.014     217.803
  C     -185.926     487.739     218.496
  C     -187.210     487.644     218.013
  C     -187.427     487.899     216.607
  O     -188.526     487.958     216.059
  N     -188.118     487.422     219.017
  C     -187.388     487.419     220.115
  N     -186.057     487.646     219.851
  O     -185.705     491.173     226.530
  O     -185.727     491.074     224.024
  H     -183.744     490.874     220.971
  H     -184.870     491.491     224.248
  H     -186.355     488.491     214.978
  H     -187.771     487.292     221.121
  H     -184.123     487.411     220.462
  H     -185.787     489.811     221.394
  H     -184.138     489.013     214.806
  H     -184.538     489.978     223.313
  H     -183.129     488.962     216.205
  H     -184.397     487.219     223.846
  H     -186.894     488.944     223.403
  H     -186.913     487.353     224.173
  P     -181.765     490.150     222.548
  C     -182.484     491.283     224.733
  O     -182.138     491.472     223.376
  O     -182.036     490.593     221.033
  O     -180.352     489.698     222.708
  H     -181.182     490.740     220.581
  H     -182.975     492.198     225.099
  H     -181.575     491.111     225.320
  H     -183.166     490.441     224.854
  H     -189.842     490.403     225.689
  H     -188.725     490.562     227.024
  H     -188.787     489.075     226.108

 3  4  5  6  7  8  9  10  11  12  23  26  30  31 0
 6-311+G(2d,p)
 ****
 33  35  36  37  38 0
 6-311+G(2d,p)
 ****
 1  2  13  14  15  16  17  18  19  20  21  22  24  25 0
 3-21G
 ****
 27  28  29  32  34  39  40  41  42  43  44  45  46  47  48  49 0
 3-21G
 ****


