%nproc=1
%NoSave
%Mem=1900MB
#P OB98/GEN NMR

erre ene a

0 1
  C      -26.324     214.319       3.645
  O      -25.667     214.431       2.382
  P      -24.365     213.544       2.094
  C      -24.929     213.651      -0.419
  O      -23.916     213.757       0.568
  C      -25.925     214.817      -0.316
  O      -25.203     216.061      -0.108
  C      -26.790     214.979      -1.573
  O      -28.186     215.055      -1.286
  C      -26.187     216.187      -2.266
  O      -27.099     216.840      -3.137
  C      -25.642     217.012      -1.095
  N      -24.564     217.913      -1.513
  C      -24.947     219.126      -2.070
  O      -26.120     219.426      -2.288
  N      -23.931     219.969      -2.431
  C      -22.598     219.688      -2.363
  O      -21.727     220.458      -2.744
  C      -22.253     218.363      -1.825
  C      -23.237     217.551      -1.431
  O      -24.437     212.122       2.539
  O      -23.216     214.328       2.899
  H      -26.682     217.671      -3.455
  H      -22.623     213.663       3.300
  H      -24.193     220.861      -2.821
  H      -21.208     218.097      -1.777
  H      -23.013     216.567      -1.044
  H      -26.428     217.630      -0.650
  H      -25.343     215.848      -2.879
  H      -26.705     214.106      -2.230
  H      -26.553     214.631       0.560
  H      -25.470     212.713      -0.286
  H      -24.467     213.599      -1.410
  P      -29.317     214.229      -2.058
  C      -30.868     213.799      -0.027
  O      -30.702     214.428      -1.281
  O      -28.979     212.815      -2.386
  O      -29.525     215.073      -3.404
  H      -29.643     214.459      -4.152
  H      -31.937     213.718       0.184
  H      -30.402     214.410       0.751
  H      -30.429     212.798      -0.022
  H      -27.168     214.976       3.667
  H      -25.643     214.586       4.426
  H      -26.653     213.311       3.788

 3  4  5  6  7  8  9  10  11  12  13  23  28  29  30  31  32 0
 6-311+G(2d,p)
 ****
 33  34 0
 6-311+G(2d,p)
 ****
 1  2  14  15  16  17  18  19  20  21  22  24  25  26  27 0
 3-21G
 ****
 35  36  37  38  39  40  41  42  43  44  45 0
 3-21G
 ****


