%nproc=1
%NoSave
%Mem=1900MB
#P OB98/GEN NMR

erre ene a

0 1
  C      379.773    -894.580     107.665
  O      378.572    -894.850     106.916
  P      377.801    -896.230     107.180
  C      375.367    -896.990     107.611
  O      376.224    -895.910     107.190
  C      373.941    -896.470     107.847
  O      373.893    -895.440     108.846
  C      373.303    -895.880     106.583
  O      372.938    -896.890     105.671
  C      372.151    -895.080     107.212
  O      371.029    -895.950     107.454
  C      372.758    -894.600     108.546
  N      373.128    -893.200     108.533
  C      372.076    -892.280     108.671
  O      370.912    -892.680     108.795
  N      372.370    -890.930     108.704
  C      373.602    -890.550     108.575
  N      373.837    -889.200     108.607
  C      374.749    -891.470     108.383
  C      374.435    -892.770     108.359
  O      378.310    -897.050     108.308
  O      377.975    -897.000     105.773
  H      371.354    -896.650     108.065
  H      377.996    -897.980     105.956
  H      375.745    -891.100     108.292
  H      375.199    -893.520     108.236
  H      372.046    -894.760     109.350
  H      371.815    -894.290     106.546
  H      374.034    -895.180     106.129
  H      373.342    -897.360     108.195
  H      373.035    -888.570     108.707
  H      375.763    -897.430     108.540
  H      374.756    -888.800     108.553
  H      375.394    -897.790     106.852
  P      373.605    -896.840     104.209
  C      374.448    -898.960     102.955
  O      373.346    -898.270     103.525
  O      375.192    -896.900     104.569
  O      373.291    -895.650     103.386
  H      375.699    -896.390     103.898
  H      374.176    -900.000     102.821
  H      375.336    -898.910     103.634
  H      374.723    -898.530     102.000
  H      380.166    -893.628     107.377
  H      380.498    -895.341     107.463
  H      379.547    -894.571     108.711

 3  4  5  6  7  8  9  10  11  12  13  23  27  28  29  30  32 0
 6-311+G(2d,p)
 ****
 34  35 0
 6-311+G(2d,p)
 ****
 1  2  14  15  16  17  18  19  20  21  22  24  25  26 0
 3-21G
 ****
 31  33  36  37  38  39  40  41  42  43  44  45  46 0
 3-21G
 ****


