%nproc=1
%NoSave
%Mem=1900MB
#P OB98/GEN NMR

erre ene a

0 1
  C       75.913     112.548     124.603
  O       76.922     111.727     124.052
  H       74.979     111.980     124.640
  H       75.757     113.438     123.988
  H       76.182     112.843     125.621
  P       78.355     112.368     123.740
  C       79.671     112.961     121.605
  O       78.574     112.241     122.154
  C       79.485     113.164     120.101
  O       79.520     111.865     119.451
  C       78.165     113.848     119.730
  O       78.405     114.721     118.624
  C       77.293     112.683     119.311
  O       76.249     113.097     118.450
  C       78.310     111.723     118.684
  N       77.811     110.348     118.692
  C       77.113     109.932     117.553
  O       76.953     110.700     116.605
  N       76.552     108.679     117.540
  C       76.633     107.927     118.593
  N       76.022     106.713     118.525
  C       77.339     108.335     119.823
  C       77.900     109.544     119.805
  O       79.494     111.872     124.568
  O       78.120     113.938     123.948
  H       75.635     112.350     118.302
  H       78.316     114.186     124.872
  H       77.371     107.673     120.676
  H       78.427     109.933     120.669
  H       78.530     112.013     117.648
  H       76.838     112.224     120.199
  H       77.727     114.409     120.561
  H       80.344     113.732     119.717
  H       75.532     106.485     117.668
  H       80.580     112.379     121.788
  H       75.980     106.060     119.293
  H       79.765     113.929     122.105
  P       78.062     116.286     118.726
  C       76.002     117.777     119.028
  O       76.467     116.478     118.674
  O       78.823     117.157     117.779
  O       78.427     116.657     120.244
  H       78.710     117.591     120.287
  H       74.934     117.804     118.963
  H       76.418     118.500     118.358
  H       76.304     118.003     120.029

 6  7  8  9  10  11  12  13  14  15  16  26  30  31  32  33  35 0
 6-311+G(2d,p)
 ****
 37  38 0
 6-311+G(2d,p)
 ****
 1  2  3  4  5  17  18  19  20  21  22  23  24  25 0
 3-21G
 ****
 27  28  29  34  36  39  40  41  42  43  44  45  46 0
 3-21G
 ****


