%nproc=1
%NoSave
%Mem=1900MB
#P OB98/GEN NMR

erre ene a

0 1
  C      -48.964     260.197      24.292
  O      -49.599     260.080      25.555
  P      -49.150     261.109      26.714
  C      -51.524     261.123      27.844
  O      -50.493     261.845      27.189
  C      -52.679     260.847      26.866
  O      -52.226     260.006      25.796
  C      -53.874     260.124      27.481
  O      -54.672     260.992      28.258
  C      -54.554     259.565      26.240
  O      -55.343     260.594      25.604
  C      -53.346     259.197      25.358
  N      -53.033     257.775      25.370
  C      -53.390     257.042      24.244
  O      -53.944     257.537      23.275
  N      -53.101     255.695      24.290
  C      -52.562     255.022      25.346
  O      -52.375     253.809      25.358
  C      -52.228     255.838      26.529
  C      -52.476     257.158      26.485
  O      -48.375     262.204      25.846
  O      -48.347     260.462      27.793
  H      -48.703     262.245      24.921
  H      -55.773     260.166      24.831
  H      -53.333     255.150      23.474
  H      -51.817     255.347      27.392
  H      -52.253     257.772      27.343
  H      -53.530     259.494      24.303
  H      -55.220     258.727      26.458
  H      -53.523     259.291      28.117
  H      -52.999     261.804      26.428
  H      -51.896     261.723      28.681
  H      -51.120     260.172      28.227
  P      -55.417     260.354      29.536
  C      -54.492     261.962      31.387
  O      -54.477     260.667      30.802
  O      -55.197     258.789      29.263
  O      -56.848     260.760      29.667
  H      -54.297     258.583      28.947
  H      -54.096     261.889      32.401
  H      -55.486     262.385      31.422
  H      -53.830     262.633      30.792
  H      -49.356     259.457      23.626
  H      -47.910     260.050      24.407
  H      -49.146     261.172      23.890

 3  4  5  6  7  8  9  10  11  12  13  24  28  29  30  31  32 0
 6-311+G(2d,p)
 ****
 33  34 0
 6-311+G(2d,p)
 ****
 1  2  14  15  16  17  18  19  20  21  22  23  25  26  27 0
 3-21G
 ****
 35  36  37  38  39  40  41  42  43  44  45 0
 3-21G
 ****


