%nproc=1
%NoSave
%Mem=1900MB
#P OB98/GEN NMR

erre ene a

0 1
  C     -576.679     464.173    -401.118
  O     -575.846     465.011    -401.904
  P     -574.678     464.384    -402.815
  C     -575.101     466.207    -404.596
  O     -574.142     465.618    -403.713
  C     -574.599     467.580    -405.084
  O     -574.854     468.589    -404.094
  C     -573.087     467.637    -405.373
  O     -572.797     467.028    -406.624
  C     -572.859     469.150    -405.342
  O     -573.201     469.751    -406.602
  C     -573.830     469.615    -404.213
  N     -573.136     469.850    -402.965
  C     -573.086     471.186    -402.521
  O     -573.586     472.074    -403.193
  N     -572.454     471.466    -401.340
  C     -571.885     470.538    -400.663
  N     -571.237     470.876    -399.501
  C     -571.868     469.108    -401.103
  C     -572.507     468.836    -402.242
  O     -575.049     463.152    -403.566
  O     -573.474     464.166    -401.768
  H     -573.026     470.713    -406.472
  H     -573.662     463.391    -401.199
  H     -571.386     468.340    -400.511
  H     -572.558     467.841    -402.650
  H     -574.345     470.537    -404.513
  H     -571.804     469.385    -405.127
  H     -572.557     467.171    -404.553
  H     -575.170     467.859    -405.990
  H     -571.252     471.853    -399.263
  H     -576.055     466.349    -404.063
  H     -570.751     470.232    -398.917
  H     -575.282     465.530    -405.440
  P     -571.706     465.867    -406.698
  C     -572.816     463.988    -408.072
  O     -571.914     465.082    -408.091
  O     -571.567     465.005    -405.487
  O     -570.323     466.680    -406.954
  H     -569.640     466.314    -406.362
  H     -573.089     463.736    -409.094
  H     -573.679     464.201    -407.467
  H     -572.284     463.121    -407.644
  H     -577.389     464.772    -400.587
  H     -576.079     463.628    -400.419
  H     -577.197     463.487    -401.755

 3  4  5  6  7  8  9  10  11  12  13  23  27  28  29  30  32 0
 6-311+G(2d,p)
 ****
 34  35 0
 6-311+G(2d,p)
 ****
 1  2  14  15  16  17  18  19  20  21  22  24  25  26 0
 3-21G
 ****
 31  33  36  37  38  39  40  41  42  43  44  45  46 0
 3-21G
 ****


