%nproc=1
%NoSave
%Mem=1900MB
#P OB98/GEN NMR

erre ene a

0 1
  C     -244.008     462.859     242.030
  O     -242.983     462.050     242.614
  P     -242.694     462.012     244.192
  C     -242.107     459.594     244.881
  O     -241.607     460.874     244.507
  C     -241.366     458.463     244.165
  O     -241.682     458.458     242.759
  C     -239.844     458.550     244.237
  O     -239.369     458.155     245.511
  C     -239.443     457.627     243.091
  O     -239.464     456.251     243.498
  C     -240.547     457.910     242.052
  N     -240.107     458.796     240.986
  C     -239.585     458.186     239.842
  O     -239.454     456.958     239.793
  N     -239.190     458.980     238.792
  C     -239.243     460.271     238.906
  N     -238.847     461.004     237.833
  C     -239.712     460.956     240.129
  C     -240.122     460.164     241.115
  O     -243.928     461.922     245.032
  O     -241.903     463.371     244.501
  H     -239.419     455.722     242.679
  H     -242.116     463.662     245.408
  H     -239.711     462.034     240.192
  H     -240.485     460.586     242.045
  H     -240.902     456.969     241.606
  H     -238.438     457.839     242.717
  H     -239.523     459.575     244.009
  H     -241.711     457.513     244.592
  H     -238.542     460.506     237.009
  H     -243.171     459.549     244.616
  H     -238.855     462.015     237.812
  H     -242.014     459.484     245.966
  P     -238.871     459.268     246.551
  C     -239.188     457.672     248.540
  O     -238.284     458.505     247.827
  O     -239.845     460.355     246.853
  O     -237.550     459.863     245.865
  H     -237.461     460.804     246.113
  H     -238.615     456.927     249.101
  H     -239.872     457.158     247.854
  H     -239.766     458.276     249.241
  H     -244.012     462.719     240.969
  H     -243.821     463.888     242.254
  H     -244.959     462.574     242.430

 3  4  5  6  7  8  9  10  11  12  13  23  27  28  29  30  32 0
 6-311+G(2d,p)
 ****
 34  35 0
 6-311+G(2d,p)
 ****
 1  2  14  15  16  17  18  19  20  21  22  24  25  26 0
 3-21G
 ****
 31  33  36  37  38  39  40  41  42  43  44  45  46 0
 3-21G
 ****


