%nproc=1
%NoSave
%Mem=1900MB
#P OB98/GEN NMR

erre ene a

0 1
  C     -161.539      21.541     -39.919
  O     -162.756      21.387     -40.616
  P     -162.862      21.377     -42.208
  C     -164.966      22.908     -42.130
  O     -164.390      21.699     -42.609
  C     -166.064      23.462     -43.054
  O     -165.519      23.701     -44.367
  C     -167.170      22.407     -43.237
  O     -168.197      22.278     -42.273
  C     -167.655      22.585     -44.677
  O     -168.846      23.371     -44.755
  C     -166.486      23.307     -45.351
  N     -166.155      22.234     -50.298
  C     -166.763      23.316     -49.680
  N     -167.528      24.094     -50.471
  N     -166.636      23.580     -48.403
  C     -165.912      22.655     -47.727
  C     -165.255      21.558     -48.233
  C     -165.363      21.299     -49.652
  O     -164.911      20.307     -50.221
  N     -164.684      20.802     -47.239
  C     -165.028      21.420     -46.131
  N     -165.812      22.525     -46.370
  O     -162.145      20.279     -42.929
  O     -162.122      22.762     -42.580
  H     -169.534      22.923     -44.243
  H     -161.654      22.625     -43.428
  H     -166.348      22.038     -51.276
  H     -164.773      21.091     -45.130
  H     -166.832      24.229     -45.834
  H     -167.891      21.613     -45.129
  H     -167.765      23.838     -51.420
  H     -166.676      21.426     -43.229
  H     -168.122      24.786     -50.023
  H     -166.434      24.422     -42.699
  H     -164.156      23.641     -42.019
  H     -165.389      22.742     -41.132
  P     -168.532      20.972     -41.411
  C     -171.011      20.369     -41.625
  O     -170.038      21.084     -40.883
  O     -167.669      21.158     -40.070
  O     -168.188      19.674     -42.071
  H     -167.525      20.288     -39.647
  H     -172.004      20.745     -41.378
  H     -170.958      19.305     -41.357
  H     -170.839      20.475     -42.706
  H     -161.725      21.515     -38.866
  H     -161.095      22.479     -40.179
  H     -160.874      20.746     -40.183

 3  4  5  6  7  8  9  10  11  12  23  26  30  31 0
 6-311+G(2d,p)
 ****
 33  35  36  37  38 0
 6-311+G(2d,p)
 ****
 1  2  13  14  15  16  17  18  19  20  21  22  24  25 0
 3-21G
 ****
 27  28  29  32  34  39  40  41  42  43  44  45  46  47  48  49 0
 3-21G
 ****


