%nproc=1
%NoSave
%Mem=1900MB
#P OB98/GEN NMR

erre ene a

0 1
  C      356.089    -365.818    1127.625
  O      354.792    -365.369    1127.960
  H      356.726    -365.823    1128.508
  H      356.021    -366.838    1127.232
  H      356.523    -365.176    1126.854
  P      354.676    -363.902    1128.587
  C      353.518    -362.943    1126.475
  O      354.627    -362.867    1127.362
  C      353.716    -361.984    1125.298
  O      354.936    -362.367    1124.599
  C      352.565    -361.972    1124.280
  O      352.039    -360.645    1124.150
  C      353.222    -362.355    1122.960
  O      352.738    -361.605    1121.846
  C      354.703    -362.101    1123.208
  N      357.589    -362.197    1119.005
  C      357.193    -361.178    1119.791
  N      356.519    -361.227    1120.968
  C      356.263    -362.504    1121.308
  C      356.620    -363.646    1120.616
  C      357.293    -363.459    1119.396
  N      357.641    -364.498    1118.558
  N      356.167    -364.781    1121.279
  C      355.523    -364.322    1122.327
  N      355.536    -362.948    1122.382
  O      356.128    -363.660    1129.225
  O      353.592    -363.725    1129.600
  H      351.921    -362.051    1121.546
  H      356.031    -363.314    1130.135
  H      357.459    -360.185    1119.445
  H      354.990    -364.925    1123.052
  H      354.982    -361.053    1123.020
  H      353.028    -363.424    1122.770
  H      351.766    -362.667    1124.539
  H      353.880    -360.980    1125.701
  H      352.596    -362.665    1127.005
  H      358.021    -364.271    1117.651
  H      357.334    -365.436    1118.794
  H      353.412    -363.977    1126.118
  P      350.768    -360.288    1125.062
  C      352.024    -358.361    1126.297
  O      351.317    -359.593    1126.402
  O      350.267    -361.724    1125.574
  O      349.689    -359.542    1124.347
  H      349.308    -361.697    1125.769
  H      352.319    -358.035    1127.272
  H      351.391    -357.623    1125.850
  H      352.894    -358.500    1125.689

 6  7  8  9  10  11  12  13  14  15  25  28  32  33  34  35 0
 6-311+G(2d,p)
 ****
 36  39  40 0
 6-311+G(2d,p)
 ****
 1  2  3  4  5  16  17  18  19  20  21  22  23  24 0
 3-21G
 ****
 26  27  29  30  31  37  38  41  42  43  44  45  46  47  48 0
 3-21G
 ****


