%nproc=1
%NoSave
%Mem=1900MB
#P OB98/GEN NMR

erre ene a

0 1
  C      -61.629     589.773     -54.977
  O      -62.775     589.236     -55.650
  P      -64.024     590.225     -55.845
  C      -65.844     588.959     -54.493
  O      -65.366     589.345     -55.777
  C      -66.918     587.876     -54.622
  O      -66.360     586.585     -54.908
  C      -67.751     587.700     -53.357
  O      -68.743     588.716     -53.287
  C      -68.339     586.312     -53.559
  O      -69.527     586.348     -54.385
  C      -67.209     585.566     -54.296
  N      -65.545     580.832     -53.575
  C      -66.496     581.321     -54.470
  N      -67.060     580.411     -55.305
  N      -66.854     582.565     -54.543
  C      -66.198     583.365     -53.646
  C      -65.217     583.001     -52.741
  C      -64.840     581.606     -52.671
  O      -63.994     581.130     -51.927
  N      -64.753     584.092     -52.047
  C      -65.532     585.086     -52.448
  N      -66.390     584.703     -53.458
  O      -63.919     590.662     -57.383
  O      -63.988     591.402     -54.926
  H      -69.324     586.792     -55.225
  H      -63.663     591.606     -57.436
  H      -65.314     579.849     -53.574
  H      -65.503     586.092     -52.064
  H      -67.588     584.942     -55.104
  H      -68.636     585.848     -52.620
  H      -66.833     579.424     -55.302
  H      -67.102     587.717     -52.466
  H      -67.748     580.746     -55.963
  H      -67.572     588.168     -55.467
  H      -66.258     589.825     -53.971
  H      -65.000     588.608     -53.889
  P      -68.915     589.504     -51.899
  C      -71.469     589.371     -51.447
  O      -70.361     590.158     -51.886
  O      -67.928     590.761     -52.067
  O      -68.549     588.702     -50.693
  H      -67.407     590.891     -51.258
  H      -72.215     590.017     -51.005
  H      -71.157     588.619     -50.716
  H      -71.912     588.861     -52.315
  H      -60.870     589.022     -54.910
  H      -61.908     590.087     -53.993
  H      -61.253     590.611     -55.526

 3  4  5  6  7  8  9  10  11  12  23  26  30  31 0
 6-311+G(2d,p)
 ****
 33  35  36  37  38 0
 6-311+G(2d,p)
 ****
 1  2  13  14  15  16  17  18  19  20  21  22  24  25 0
 3-21G
 ****
 27  28  29  32  34  39  40  41  42  43  44  45  46  47  48  49 0
 3-21G
 ****


