%nproc=1
%NoSave
%Mem=1900MB
#P OB98/GEN NMR

erre ene a

0 1
  C      480.958    -912.264     263.957
  O      481.264    -912.363     265.336
  P      480.364    -911.605     266.434
  C      479.475    -909.203     266.691
  O      480.418    -910.062     266.028
  C      479.982    -907.755     266.696
  O      480.222    -907.281     265.353
  C      478.989    -906.754     267.309
  O      479.016    -906.842     268.724
  C      479.519    -905.437     266.750
  O      480.632    -904.945     267.525
  C      479.990    -905.862     265.330
  N      479.041    -905.472     264.291
  C      478.913    -904.106     264.059
  O      479.549    -903.293     264.731
  N      478.021    -903.689     263.100
  C      477.321    -904.564     262.447
  N      476.442    -904.062     261.516
  C      477.400    -906.013     262.688
  C      478.271    -906.397     263.613
  O      480.702    -911.910     267.860
  O      478.868    -912.037     266.039
  H      480.258    -904.753     268.418
  H      478.681    -912.972     266.280
  H      476.779    -906.704     262.119
  H      478.406    -907.447     263.849
  H      480.964    -905.399     265.105
  H      478.751    -904.661     266.743
  H      477.980    -906.944     266.917
  H      480.930    -907.725     267.245
  H      476.384    -903.064     261.401
  H      479.353    -909.551     267.721
  H      475.810    -904.660     260.977
  H      478.494    -909.271     266.187
  P      477.669    -906.566     269.553
  C      476.186    -904.558     270.135
  O      477.323    -905.010     269.412
  O      477.665    -907.103     270.966
  O      476.526    -907.292     268.672
  H      475.944    -907.775     269.274
  H      476.238    -903.465     270.219
  H      476.154    -904.996     271.138
  H      475.269    -904.831     269.601
  H      481.667    -912.834     263.393
  H      481.003    -911.239     263.654
  H      479.974    -912.645     263.782

 3  4  5  6  7  8  9  10  11  12  13  23  27  28  29  30  32 0
 6-311+G(2d,p)
 ****
 34  35 0
 6-311+G(2d,p)
 ****
 1  2  14  15  16  17  18  19  20  21  22  24  25  26 0
 3-21G
 ****
 31  33  36  37  38  39  40  41  42  43  44  45  46 0
 3-21G
 ****


