%nproc=1
%NoSave
%Mem=1900MB
#P OB98/GEN NMR

erre ene a

0 1
  C       34.093     -97.608     109.364
  O       33.868     -96.369     108.721
  H       35.137     -97.897     109.210
  H       33.450     -98.385     108.940
  H       33.910     -97.519     110.438
  P       32.386     -95.762     108.731
  C       31.394     -96.972     106.670
  O       31.436     -96.882     108.091
  C       30.220     -97.841     106.221
  O       30.471     -99.225     106.537
  C       28.896     -97.496     106.893
  O       28.354     -96.309     106.347
  C       28.104     -98.763     106.617
  O       27.610     -98.779     105.268
  C       29.194     -99.847     106.811
  N       29.185    -100.450     108.141
  C       28.490    -101.659     108.264
  O       27.919    -102.149     107.289
  N       28.450    -102.267     109.496
  C       29.079    -101.744     110.501
  N       29.003    -102.398     111.691
  C       29.849    -100.489     110.405
  C       29.851     -99.895     109.212
  O       32.227     -94.398     108.131
  O       31.973     -95.777     110.278
  H       27.142     -99.631     105.161
  H       32.169     -94.916     110.693
  H       30.368    -100.094     111.266
  H       30.394     -98.969     109.056
  H       29.069    -100.652     106.073
  H       27.241     -98.864     107.275
  H       29.032     -97.402     107.977
  H       30.141     -97.762     105.128
  H       28.478    -103.266     111.703
  H       32.340     -97.421     106.348
  H       29.578    -102.174     112.490
  H       31.316     -95.975     106.221
  P       27.507     -95.283     107.243
  C       25.544     -96.382     105.997
  O       25.997     -95.831     107.224
  O       27.659     -93.846     106.875
  O       27.975     -95.613     108.738
  H       28.864     -95.216     108.915
  H       24.532     -96.711     106.106
  H       26.162     -97.213     105.729
  H       25.597     -95.637     105.231

 6  7  8  9  10  11  12  13  14  15  16  26  30  31  32  33  35 0
 6-311+G(2d,p)
 ****
 37  38 0
 6-311+G(2d,p)
 ****
 1  2  3  4  5  17  18  19  20  21  22  23  24  25 0
 3-21G
 ****
 27  28  29  34  36  39  40  41  42  43  44  45  46 0
 3-21G
 ****


