%nproc=1
%NoSave
%Mem=1900MB
#P OB98/GEN NMR

erre ene a

0 1
  C      158.530    -403.454     -71.970
  O      157.981    -404.656     -72.502
  P      158.772    -405.364     -73.700
  C      159.688    -407.425     -72.363
  O      159.963    -406.226     -73.060
  C      160.992    -408.135     -71.951
  O      161.801    -408.332     -73.139
  C      161.877    -407.361     -70.982
  O      162.793    -408.272     -70.371
  C      162.630    -406.441     -71.918
  O      163.803    -405.911     -71.306
  C      162.865    -407.343     -73.149
  N      162.860    -406.607     -74.433
  C      163.967    -405.825     -74.751
  O      164.954    -405.706     -74.028
  N      163.896    -405.136     -75.931
  C      162.870    -405.181     -76.825
  O      162.820    -404.474     -77.824
  C      161.794    -406.126     -76.507
  C      161.831    -406.777     -75.344
  O      159.513    -404.151     -74.430
  O      157.892    -406.127     -74.633
  H      164.317    -406.681     -70.974
  H      159.067    -403.939     -75.271
  H      164.663    -404.513     -76.142
  H      160.993    -406.242     -77.227
  H      161.031    -407.467     -75.085
  H      163.827    -407.866     -73.079
  H      161.995    -405.594     -72.190
  H      161.333    -406.807     -70.212
  H      160.749    -409.126     -71.549
  H      159.077    -408.085     -72.983
  H      159.098    -407.203     -71.466
  P      162.671    -408.517     -68.790
  C      161.635    -410.837     -69.172
  O      161.471    -409.561     -68.588
  O      162.614    -407.292     -67.941
  O      163.965    -409.406     -68.465
  H      164.159    -409.366     -67.512
  H      161.085    -411.571     -68.580
  H      162.690    -411.128     -69.209
  H      161.228    -410.822     -70.187
  H      157.903    -403.094     -71.182
  H      158.590    -402.717     -72.743
  H      159.509    -403.649     -71.586

 3  4  5  6  7  8  9  10  11  12  13  23  28  29  30  31  32 0
 6-311+G(2d,p)
 ****
 33  34 0
 6-311+G(2d,p)
 ****
 1  2  14  15  16  17  18  19  20  21  22  24  25  26  27 0
 3-21G
 ****
 35  36  37  38  39  40  41  42  43  44  45 0
 3-21G
 ****


