%nproc=1
%NoSave
%Mem=1900MB
#P OB98/GEN NMR

erre ene a

0 1
  C       77.800      -6.825     -71.889
  O       78.740      -6.041     -71.173
  P       78.223      -4.673     -70.511
  C       77.565      -2.389     -71.639
  O       78.375      -3.554     -71.648
  C       78.019      -1.423     -72.737
  O       79.327      -0.898     -72.419
  C       78.159      -2.051     -74.118
  O       76.899      -2.237     -74.742
  C       79.069      -1.043     -74.810
  O       78.306       0.088     -75.263
  C       80.010      -0.624     -73.661
  N       81.310      -1.292     -73.709
  C       82.322      -0.616     -74.383
  O       82.162       0.481     -74.916
  N       83.531      -1.259     -74.440
  C       83.802      -2.507     -73.958
  O       84.891      -3.054     -74.075
  C       82.683      -3.185     -73.285
  C       81.508      -2.557     -73.193
  O       79.412      -4.377     -69.484
  O       76.870      -4.794     -69.898
  H       80.254      -4.763     -69.783
  H       78.125       0.634     -74.473
  H       84.289      -0.779     -74.904
  H       82.857      -4.180     -72.899
  H       80.671      -3.045     -72.709
  H       80.178       0.460     -73.684
  H       79.580      -1.465     -75.682
  H       78.676      -3.016     -74.038
  H       77.314      -0.582     -72.766
  H       77.651      -1.903     -70.664
  H       76.521      -2.681     -71.795
  P       76.693      -3.619     -75.546
  C       78.104      -4.787     -77.409
  O       77.741      -3.592     -76.755
  O       75.275      -3.361     -76.243
  O       76.746      -4.832     -74.676
  H       75.187      -2.463     -76.603
  H       78.519      -4.539     -78.390
  H       77.241      -5.445     -77.547
  H       78.867      -5.305     -76.824
  H       78.283      -7.700     -72.271
  H       77.404      -6.253     -72.702
  H       77.004      -7.114     -71.235

 3  4  5  6  7  8  9  10  11  12  13  24  28  29  30  31  32 0
 6-311+G(2d,p)
 ****
 33  34 0
 6-311+G(2d,p)
 ****
 1  2  14  15  16  17  18  19  20  21  22  23  25  26  27 0
 3-21G
 ****
 35  36  37  38  39  40  41  42  43  44  45 0
 3-21G
 ****


