%nproc=1
%NoSave
%Mem=1900MB
#P OB98/GEN NMR

erre ene a

0 1
  C      621.168    -898.410    1263.764
  O      620.606    -897.490    1262.851
  H      620.985    -898.060    1264.775
  H      622.248    -898.490    1263.604
  H      620.700    -899.400    1263.646
  P      620.590    -897.840    1261.287
  C      618.343    -899.060    1261.602
  O      619.053    -898.090    1260.875
  C      616.921    -898.580    1261.917
  O      616.960    -897.470    1262.851
  C      616.191    -898.030    1260.687
  O      615.731    -899.080    1259.844
  C      615.093    -897.220    1261.363
  O      613.988    -898.040    1261.748
  C      615.827    -896.640    1262.611
  N      616.207    -895.230    1262.401
  C      615.207    -894.310    1262.562
  O      614.038    -894.590    1262.857
  N      615.559    -893.000    1262.321
  C      616.777    -892.580    1261.811
  O      616.964    -891.460    1261.387
  C      617.821    -893.630    1261.760
  C      617.483    -894.870    1262.043
  O      621.532    -898.930    1260.865
  O      620.932    -896.450    1260.571
  H      621.867    -896.460    1260.306
  H      613.601    -898.400    1260.930
  H      614.818    -892.320    1262.376
  H      618.799    -893.320    1261.417
  H      618.252    -895.670    1261.950
  H      615.163    -896.700    1263.496
  H      614.687    -896.440    1260.699
  H      616.859    -897.350    1260.129
  H      616.347    -899.400    1262.370
  H      618.876    -899.260    1262.553
  H      618.309    -900.000    1261.038
  P      615.609    -898.810    1258.244
  C      618.137    -898.860    1257.801
  O      616.867    -899.480    1257.532
  O      615.316    -897.420    1257.859
  O      614.397    -899.800    1257.835
  H      613.755    -899.290    1257.309
  H      618.908    -899.385    1257.277
  H      618.334    -898.892    1258.852
  H      618.113    -897.842    1257.474

 6  7  8  9  10  11  12  13  14  15  16  27  31  32  33  34  35 0
 6-311+G(2d,p)
 ****
 36  37 0
 6-311+G(2d,p)
 ****
 1  2  3  4  5  17  18  19  20  21  22  23  24  25 0
 3-21G
 ****
 26  28  29  30  38  39  40  41  42  43  44  45 0
 3-21G
 ****


