%nproc=1
%NoSave
%Mem=1900MB
#P OB98/GEN NMR

erre ene a

0 1
  C     -132.674     -73.656     398.585
  O     -132.120     -73.956     399.849
  P     -130.910     -75.001     399.983
  C     -132.336     -76.658     401.351
  O     -131.607     -76.439     400.144
  C     -131.708     -77.789     402.167
  O     -131.770     -79.033     401.444
  C     -130.237     -77.573     402.497
  O     -130.093     -76.644     403.553
  C     -129.801     -78.994     402.836
  O     -130.135     -79.329     404.195
  C     -130.638     -79.832     401.848
  N     -129.858     -80.282     400.702
  C     -129.337     -81.580     400.791
  O     -129.519     -82.257     401.802
  N     -128.579     -82.057     399.747
  C     -128.345     -81.298     398.722
  N     -127.580     -81.823     397.728
  C     -128.849     -79.915     398.605
  C     -129.589     -79.476     399.622
  O     -129.886     -74.663     401.012
  O     -130.319     -75.059     398.493
  H     -130.061     -80.302     404.258
  H     -129.803     -74.245     398.278
  H     -128.619     -79.316     397.736
  H     -129.998     -78.474     399.621
  H     -131.051     -80.718     402.347
  H     -128.722     -79.129     402.729
  H     -129.704     -77.232     401.603
  H     -132.289     -77.904     403.091
  H     -127.229     -82.763     397.859
  H     -133.362     -76.931     401.087
  H     -127.307     -81.308     396.904
  H     -132.364     -75.731     401.930
  P     -128.673     -75.959     403.827
  C     -127.921     -77.504     405.732
  O     -127.689     -77.087     404.403
  O     -128.713     -74.689     404.609
  O     -128.096     -75.696     402.354
  H     -127.709     -74.803     402.319
  H     -127.433     -78.470     405.888
  H     -128.990     -77.611     405.930
  H     -127.492     -76.775     406.424
  H     -133.464     -72.944     398.702
  H     -133.063     -74.550     398.145
  H     -131.915     -73.247     397.951

 3  4  5  6  7  8  9  10  11  12  13  23  27  28  29  30  32 0
 6-311+G(2d,p)
 ****
 34  35 0
 6-311+G(2d,p)
 ****
 1  2  14  15  16  17  18  19  20  21  22  24  25  26 0
 3-21G
 ****
 31  33  36  37  38  39  40  41  42  43  44  45  46 0
 3-21G
 ****


