%nproc=1
%NoSave
%Mem=1900MB
#P OB98/GEN NMR

erre ene a

0 1
  C      177.134    -837.263    1115.818
  O      176.532    -838.546    1115.802
  H      176.428    -836.548    1115.374
  H      178.048    -837.272    1115.225
  H      177.348    -836.950    1116.844
  P      177.276    -839.755    1116.552
  C      176.459    -841.133    1114.519
  O      177.513    -840.900    1115.453
  C      176.973    -840.971    1113.091
  O      177.021    -839.559    1112.758
  C      178.382    -841.496    1112.875
  O      178.402    -842.895    1112.800
  C      178.767    -840.763    1111.594
  O      178.230    -841.449    1110.443
  C      178.075    -839.396    1111.783
  N      179.019    -838.357    1112.188
  C      179.504    -837.537    1111.185
  O      179.161    -837.615    1109.999
  N      180.453    -836.605    1111.569
  C      181.036    -836.552    1112.796
  O      182.045    -835.887    1113.024
  C      180.458    -837.396    1113.826
  C      179.491    -838.268    1113.491
  O      176.652    -840.215    1117.822
  O      178.757    -839.186    1116.792
  H      178.830    -838.908    1117.730
  H      178.778    -842.252    1110.335
  H      180.824    -836.024    1110.830
  H      180.850    -837.330    1114.838
  H      179.069    -838.935    1114.228
  H      177.589    -839.088    1110.839
  H      179.842    -840.702    1111.467
  H      179.044    -841.140    1113.683
  H      176.252    -841.458    1112.410
  H      175.655    -840.415    1114.717
  H      176.063    -842.150    1114.679
  P      179.658    -843.716    1113.402
  C      178.644    -845.813    1112.279
  O      179.833    -845.056    1112.539
  O      179.642    -843.928    1114.885
  O      180.938    -842.847    1112.966
  H      181.498    -842.708    1113.754
  H      178.891    -846.677    1111.699
  H      177.947    -845.208    1111.738
  H      178.206    -846.119    1113.206

 6  7  8  9  10  11  12  13  14  15  16  27  31  32  33  34  35 0
 6-311+G(2d,p)
 ****
 36  37 0
 6-311+G(2d,p)
 ****
 1  2  3  4  5  17  18  19  20  21  22  23  24  25 0
 3-21G
 ****
 26  28  29  30  38  39  40  41  42  43  44  45 0
 3-21G
 ****


