%nproc=1
%NoSave
%Mem=1900MB
#P OB98/GEN NMR

erre ene a

0 1
  C      -33.716    -305.955    1361.275
  O      -32.520    -306.708    1361.207
  P      -31.890    -307.368    1362.521
  C      -30.864    -309.644    1363.149
  O      -31.461    -308.853    1362.123
  C      -29.919    -310.679    1362.532
  O      -30.672    -311.691    1361.799
  C      -28.951    -310.121    1361.510
  O      -27.958    -309.231    1361.994
  C      -28.466    -311.385    1360.835
  O      -27.445    -312.045    1361.600
  C      -29.761    -312.238    1360.810
  N      -30.364    -312.297    1359.475
  C      -29.917    -313.299    1358.646
  O      -29.052    -314.154    1358.982
  N      -30.447    -313.341    1357.378
  C      -31.358    -312.441    1356.863
  O      -31.765    -312.485    1355.714
  C      -31.769    -311.365    1357.799
  C      -31.274    -311.337    1359.041
  O      -32.736    -307.272    1363.757
  O      -30.469    -306.622    1362.666
  H      -27.216    -312.865    1361.122
  H      -29.876    -306.747    1361.922
  H      -30.131    -314.079    1356.752
  H      -32.497    -310.650    1357.416
  H      -31.569    -310.583    1359.709
  H      -29.539    -313.282    1361.126
  H      -28.037    -311.181    1359.838
  H      -29.514    -309.555    1360.771
  H      -29.419    -311.209    1363.348
  H      -31.660    -310.168    1363.709
  H      -30.318    -308.992    1363.848
  P      -27.216    -308.157    1361.072
  C      -26.335    -305.711    1361.319
  O      -26.844    -306.866    1361.972
  O      -27.833    -307.903    1359.724
  O      -25.761    -308.837    1360.863
  H      -25.432    -308.590    1359.986
  H      -26.111    -304.972    1362.088
  H      -27.093    -305.275    1360.659
  H      -25.423    -305.954    1360.763
  H      -33.971    -305.601    1360.298
  H      -33.576    -305.121    1361.931
  H      -34.506    -306.573    1361.648

 3  4  5  6  7  8  9  10  11  12  13  23  28  29  30  31  32 0
 6-311+G(2d,p)
 ****
 33  34 0
 6-311+G(2d,p)
 ****
 1  2  14  15  16  17  18  19  20  21  22  24  25  26  27 0
 3-21G
 ****
 35  36  37  38  39  40  41  42  43  44  45 0
 3-21G
 ****


