%nproc=1
%NoSave
%Mem=1900MB
#P OB98/GEN NMR

erre ene a

0 1
  C       60.414    -389.393    -227.210
  O       61.124    -388.693    -228.207
  H       61.133    -389.867    -226.536
  H       59.799    -390.173    -227.669
  H       59.783    -388.711    -226.630
  P       60.255    -387.755    -229.186
  C       61.366    -385.413    -229.024
  O       60.332    -386.268    -228.571
  C       61.656    -384.336    -227.978
  O       62.544    -384.864    -226.957
  C       62.335    -383.092    -228.532
  O       61.402    -382.189    -229.108
  C       62.945    -382.517    -227.265
  O       61.924    -381.859    -226.482
  C       63.433    -383.783    -226.545
  N       68.106    -384.382    -224.669
  C       66.945    -383.974    -224.045
  N       67.041    -383.674    -222.732
  N       65.788    -383.863    -224.649
  C       65.840    -384.191    -225.962
  C       66.930    -384.607    -226.698
  C       68.198    -384.731    -226.012
  O       69.253    -385.107    -226.514
  N       66.596    -384.846    -228.007
  C       65.303    -384.562    -228.062
  N       64.803    -384.150    -226.851
  O       58.747    -388.200    -228.883
  O       60.574    -387.871    -230.638
  H       61.502    -381.205    -227.067
  H       58.233    -388.160    -229.709
  H       68.969    -384.436    -224.160
  H       64.702    -384.637    -228.958
  H       63.358    -383.695    -225.453
  H       63.718    -381.771    -227.462
  H       67.906    -383.686    -222.217
  H       63.143    -383.345    -229.239
  H       66.196    -383.405    -222.239
  H       60.713    -384.076    -227.489
  H       61.049    -384.930    -229.957
  H       62.265    -386.006    -229.218
  P       61.281    -382.155    -230.710
  C       58.689    -382.212    -230.854
  O       59.909    -382.912    -231.057
  O       62.407    -383.205    -231.180
  O       61.469    -380.816    -231.332
  H       62.682    -383.009    -232.091
  H       57.867    -382.841    -231.127
  H       58.679    -381.329    -231.459
  H       58.602    -381.939    -229.823

 6  7  8  9  10  11  12  13  14  15  26  29  33  34 0
 6-311+G(2d,p)
 ****
 36  38  39  40  41 0
 6-311+G(2d,p)
 ****
 1  2  3  4  5  16  17  18  19  20  21  22  23  24  25 0
 3-21G
 ****
 27  28  30  31  32  35  37  42  43  44  45  46  47 0
 3-21G
 ****
 48  49 0
 3-21G
 ****


