%nproc=1
%NoSave
%Mem=1900MB
#P OB98/GEN NMR

erre ene a

0 1
  C     -132.402    -148.047     -56.522
  O     -131.842    -148.745     -55.429
  H     -131.812    -148.262     -57.417
  H     -132.373    -146.969     -56.333
  H     -133.433    -148.368     -56.692
  P     -132.590    -148.596     -54.019
  C     -130.578    -147.286     -53.018
  O     -131.437    -148.416     -52.916
  C     -129.189    -147.647     -52.501
  O     -129.300    -148.219     -51.179
  C     -128.462    -148.692     -53.341
  O     -127.884    -148.129     -54.506
  C     -127.435    -149.210     -52.343
  O     -126.277    -148.365     -52.290
  C     -128.196    -149.136     -51.013
  N     -126.800    -153.871     -49.744
  C     -126.081    -152.769     -50.053
  N     -126.531    -151.535     -50.363
  C     -127.874    -151.499     -50.322
  C     -128.738    -152.542     -50.029
  C     -128.150    -153.780     -49.725
  N     -128.880    -154.909     -49.443
  N     -130.050    -152.125     -50.133
  C     -129.981    -150.855     -50.473
  N     -128.687    -150.434     -50.593
  O     -133.144    -150.076     -53.750
  O     -133.677    -147.576     -53.978
  H     -125.716    -148.706     -51.566
  H     -134.067    -150.141     -54.059
  H     -125.002    -152.898     -50.057
  H     -130.830    -150.206     -50.652
  H     -127.573    -148.747     -50.201
  H     -127.094    -150.212     -52.609
  H     -129.144    -149.510     -53.602
  H     -128.594    -146.726     -52.426
  H     -130.986    -146.467     -52.415
  H     -130.531    -146.969     -54.065
  H     -128.392    -155.769     -49.258
  H     -129.887    -154.875     -49.531
  P     -127.930    -148.972     -55.866
  C     -125.334    -149.047     -55.754
  O     -126.487    -148.857     -56.559
  O     -128.874    -148.090     -56.810
  O     -128.434    -150.367     -55.718
  H     -129.777    -148.460     -56.831
  H     -124.456    -148.939     -56.357
  H     -125.355    -150.028     -55.327
  H     -125.321    -148.317     -54.972

 6  7  8  9  10  11  12  13  14  15  25  28  32  33  34  35 0
 6-311+G(2d,p)
 ****
 36  37  40 0
 6-311+G(2d,p)
 ****
 1  2  3  4  5  16  17  18  19  20  21  22  23  24 0
 3-21G
 ****
 26  27  29  30  31  38  39 41  42  43  44  45  46  47  48 0
 3-21G
 ****


