%nproc=1
%NoSave
%Mem=1900MB
#P OB98/GEN NMR

erre ene a

0 1
  C      789.394    -548.792     151.100
  O      789.983    -549.890     150.384
  P      789.260    -551.317     150.527
  C      790.890    -552.562     152.141
  O      789.637    -551.921     151.960
  C      790.822    -553.704     153.150
  O      789.856    -554.722     152.704
  C      792.173    -554.431     153.354
  O      792.211    -554.853     154.714
  C      792.055    -555.647     152.455
  O      792.969    -556.673     152.858
  C      790.568    -555.988     152.638
  N      790.031    -556.836     151.546
  C      788.937    -557.656     151.877
  O      788.497    -557.686     153.042
  N      788.380    -558.416     150.888
  C      788.912    -558.433     149.704
  N      788.315    -559.228     148.769
  C      790.108    -557.641     149.345
  C      790.603    -556.865     150.311
  O      790.098    -552.237     149.506
  O      787.816    -551.299     150.194
  H      793.879    -556.311     152.821
  H      789.479    -552.733     148.937
  H      790.524    -557.706     148.339
  H      791.484    -556.252     150.147
  H      790.394    -556.516     153.584
  H      792.273    -555.368     151.416
  H      793.029    -553.803     153.147
  H      790.461    -553.307     154.093
  H      787.493    -559.749     149.057
  H      791.622    -551.833     152.499
  H      788.641    -559.321     147.838
  H      791.249    -552.899     151.156
  P      792.998    -553.941     155.791
  C      795.320    -554.924     155.290
  O      794.474    -553.784     155.192
  O      793.239    -554.981     156.989
  O      792.323    -552.712     156.274
  H      793.648    -554.532     157.739
  H      796.232    -554.727     154.737
  H      794.845    -555.801     154.871
  H      795.591    -555.112     156.348
  H      789.965    -547.904     150.924
  H      789.389    -549.011     152.147
  H      788.390    -548.643     150.762

 3  4  5  6  7  8  9  10  11  12  13  21  23  27  28  29  30  32 0
 6-311+G(2d,p)
 ****
 34  35 0
 6-311+G(2d,p)
 ****
 1  2  14  15  16  17  18  19  20  22  24  25  26 0
 3-21G
 ****
 31  33  36  37  38  39  40  41  42  43  44  45  46 0
 3-21G
 ****


