%nproc=1
%NoSave
%Mem=1900MB
#P OB98/GEN NMR

erre ene a

0 1
  C     -892.200     611.422    1069.959
  O     -892.500     610.601    1068.828
  P     -891.580     609.377    1068.348
  C     -893.300     607.433    1068.436
  O     -892.150     608.027    1069.032
  C     -894.480     607.427    1069.403
  O     -894.860     608.792    1069.731
  C     -895.760     606.806    1068.879
  O     -895.690     605.395    1068.820
  C     -896.780     607.344    1069.873
  O     -896.840     606.530    1071.054
  C     -896.220     608.733    1070.219
  N     -897.020     609.824    1069.674
  C     -898.080     610.276    1070.472
  O     -898.360     609.721    1071.534
  N     -898.810     611.355    1070.026
  C     -898.570     611.851    1068.860
  N     -899.310     612.935    1068.474
  C     -897.550     611.310    1067.922
  C     -896.830     610.312    1068.396
  O     -890.120     609.586    1068.578
  O     -891.900     609.187    1066.793
  H     -891.130     608.776    1066.345
  H     -895.950     606.537    1071.450
  H     -897.420     611.735    1066.944
  H     -896.050     609.854    1067.789
  H     -896.160     608.856    1071.305
  H     -897.800     607.355    1069.452
  H     -895.980     607.207    1067.873
  H     -894.160     606.929    1070.339
  H     -900.000     613.282    1069.135
  H     -893.050     606.395    1068.170
  H     -899.200     613.411    1067.590
  H     -893.550     607.966    1067.520
  P     -894.760     604.756    1067.663
  C     -893.530     602.781    1068.786
  O     -893.480     604.117    1068.355
  O     -894.190     606.037    1066.890
  O     -895.490     603.842    1066.734
  H     -894.170     605.864    1065.934
  H     -892.510     602.367    1068.775
  H     -894.170     602.170    1068.127
  H     -893.910     602.723    1069.803
  H     -892.961     612.165    1070.072
  H     -891.254     611.900    1069.812
  H     -892.160     610.815    1070.840

 3  4  5  6  7  8  9  10  11  12  13  24  27  28  29  30  32 0
 6-311+G(2d,p)
 ****
 34  35 0
 6-311+G(2d,p)
 ****
 1  2  14  15  16  17  18  19  20  21  22  23  25  26 0
 3-21G
 ****
 31  33  36  37  38  39  40  41  42  43  44  45  46 0
 3-21G
 ****


