%nproc=1
%NoSave
%Mem=1900MB
#P OB98/GEN NMR

erre ene a

0 1
  C     -305.798     -25.507     -33.673
  O     -304.763     -26.270     -34.265
  H     -305.370     -24.576     -33.295
  H     -306.255     -26.047     -32.841
  H     -306.557     -25.263     -34.421
  P     -305.076     -27.797     -34.649
  C     -303.503     -28.424     -32.702
  O     -304.771     -28.642     -33.314
  C     -302.870     -29.738     -32.251
  O     -303.797     -30.505     -31.451
  C     -302.482     -30.667     -33.392
  O     -301.435     -30.194     -34.209
  C     -302.323     -31.998     -32.675
  O     -301.047     -32.134     -32.054
  C     -303.430     -31.897     -31.595
  N     -304.587     -32.733     -31.907
  C     -304.475     -34.075     -31.573
  O     -303.468     -34.571     -31.067
  N     -305.562     -34.853     -31.876
  C     -306.701     -34.436     -32.503
  O     -307.628     -35.189     -32.762
  C     -306.741     -33.007     -32.866
  C     -305.702     -32.231     -32.554
  O     -304.376     -28.317     -35.869
  O     -306.672     -27.848     -34.753
  H     -301.116     -32.875     -31.423
  H     -306.973     -28.667     -35.220
  H     -305.508     -35.830     -31.624
  H     -307.623     -32.646     -33.376
  H     -305.711     -31.173     -32.809
  H     -303.040     -32.216     -30.619
  H     -302.446     -32.850     -33.350
  H     -303.351     -30.777     -34.056
  H     -302.004     -29.504     -31.619
  H     -303.661     -27.781     -31.826
  H     -302.842     -27.908     -33.407
  P     -301.323     -30.487     -35.770
  C     -300.141     -32.777     -35.310
  O     -301.181     -32.074     -35.983
  O     -300.431     -29.592     -36.563
  O     -302.842     -30.222     -36.264
  H     -302.789     -29.852     -37.166
  H     -300.192     -33.816     -35.562
  H     -300.258     -32.660     -34.253
  H     -299.192     -32.383     -35.610

 6  7  8  9  10  11  12  13  14  15  16  26  31  32  33  34  35 0
 6-311+G(2d,p)
 ****
 36  37 0
 6-311+G(2d,p)
 ****
 1  2  3  4  5  17  18  19  20  21  22  23  24  25 0
 3-21G
 ****
 27  28  29  30  38  39  40  41  42  43  44  45 0
 3-21G
 ****


