%nproc=1
%NoSave
%Mem=1900MB
#P OB98/GEN NMR

erre ene a

0 1
  C      100.975    -245.441     -95.240
  O      101.951    -246.460     -95.144
  H      101.291    -244.595     -94.625
  H      100.007    -245.796     -94.876
  H      100.882    -245.105     -96.276
  P      101.656    -247.881     -95.825
  C      104.102    -248.058     -96.609
  O      103.055    -248.666     -95.865
  C      105.316    -248.986     -96.694
  O      105.938    -249.054     -95.381
  C      104.967    -250.415     -97.130
  O      106.020    -250.899     -97.966
  C      104.943    -251.167     -95.817
  O      105.165    -252.551     -96.004
  C      106.018    -250.439     -95.002
  N      105.809    -250.628     -93.567
  C      106.116    -251.895     -93.053
  O      106.546    -252.778     -93.793
  N      105.861    -252.150     -91.730
  C      105.300    -251.243     -90.994
  N      105.042    -251.574     -89.700
  C      104.939    -249.901     -91.500
  C      105.218    -249.666     -92.778
  O      100.920    -247.849     -97.124
  O      100.828    -248.671     -94.705
  H      106.018    -252.686     -96.470
  H       99.871    -248.520     -94.826
  H      104.465    -249.185     -90.847
  H      104.978    -248.713     -93.241
  H      107.018    -250.807     -95.265
  H      103.960    -251.045     -95.340
  H      104.010    -250.480     -97.660
  H      106.051    -248.536     -97.372
  H      105.286    -252.513     -89.403
  H      104.385    -247.131     -96.097
  H      104.573    -250.973     -89.046
  H      103.747    -247.812     -97.616
  P      105.796    -251.078     -99.546
  C      108.001    -250.088    -100.393
  O      107.225    -251.273    -100.260
  O      104.927    -250.038    -100.176
  O      105.122    -252.530     -99.677
  H      104.536    -252.540    -100.460
  H      108.927    -250.320    -100.877
  H      108.197    -249.680     -99.424
  H      107.462    -249.373    -100.979

 6  7  8  9  10  11  12  13  14  15  16  26  30  31  32  33  35 0
 6-311+G(2d,p)
 ****
 37  38 0
 6-311+G(2d,p)
 ****
 1  2  3  4  5  17  18  19  20  21  22  23  24  25 0
 3-21G
 ****
 27  28  29  34  36  39  40  41  42  43  44  45  46 0
 3-21G
 ****


