%nproc=1
%NoSave
%Mem=1900MB
#P OB98/GEN NMR

erre ene a

0 1
  C     -424.671     -68.485     172.240
  O     -423.815     -69.119     173.172
  H     -424.126     -67.720     171.682
  H     -425.045     -69.236     171.541
  H     -425.519     -68.032     172.763
  P     -423.075     -68.161     174.225
  C     -420.483     -68.121     174.181
  O     -421.690     -67.718     173.543
  C     -419.976     -69.425     173.573
  O     -420.029     -69.359     172.130
  C     -418.527     -69.761     173.903
  O     -418.395     -70.309     175.207
  C     -418.225     -70.792     172.823
  O     -418.747     -72.073     173.219
  C     -419.010     -70.253     171.623
  N     -416.572     -70.496     167.102
  C     -417.305     -71.408     167.778
  N     -417.914     -71.278     168.975
  C     -417.726     -70.048     169.482
  C     -416.998     -69.013     168.906
  C     -416.397     -69.270     167.658
  N     -415.631     -68.339     166.989
  N     -417.031     -67.888     169.709
  C     -417.759     -68.237     170.747
  N     -418.195     -69.531     170.660
  O     -422.616     -69.170     175.384
  O     -423.905     -67.046     174.772
  H     -418.070     -72.496     173.777
  H     -422.683     -68.712     176.243
  H     -417.429     -72.368     167.290
  H     -418.003     -67.583     171.573
  H     -419.533     -71.059     171.088
  H     -417.157     -70.918     172.639
  H     -417.874     -68.889     173.759
  H     -420.646     -70.226     173.900
  H     -420.667     -68.273     175.250
  H     -415.398     -68.517     166.024
  H     -415.514     -67.434     167.414
  H     -419.739     -67.325     174.054
  P     -416.901     -70.562     175.757
  C     -416.204     -73.023     176.166
  O     -416.474     -72.001     175.208
  O     -417.130     -70.803     177.322
  O     -415.937     -69.444     175.498
  H     -416.311     -70.570     177.812
  H     -415.932     -73.925     175.658
  H     -417.078     -73.197     176.758
  H     -415.399     -72.714     176.800

 6  7  8  9  10  11  12  13  14  15  25  28  32  33  34  35 0
 6-311+G(2d,p)
 ****
 36  39  40 0
 6-311+G(2d,p)
 ****
 1  2  3  4  5  16  17  18  19  20  21  22  23  24 0
 3-21G
 ****
 26  27  29  30  31  37  38  41  42  43  44  45  46  47  48 0
 3-21G
 ****


