%nproc=1
%NoSave
%Mem=1900MB
#P OB98/GEN NMR

erre ene a

0 1
  C     -410.618     172.936     325.605
  O     -410.185     173.509     326.840
  P     -408.880     172.910     327.556
  C     -407.806     174.986     328.634
  O     -408.565     173.806     328.848
  C     -407.479     175.668     329.965
  O     -408.669     176.116     330.638
  C     -406.772     174.760     330.953
  O     -405.419     174.561     330.582
  C     -406.986     175.508     332.259
  O     -406.020     176.558     332.416
  C     -408.395     176.110     332.061
  N     -409.432     175.412     332.802
  C     -409.262     175.356     334.188
  O     -408.262     175.847     334.713
  N     -410.224     174.731     334.946
  C     -411.257     174.202     334.363
  N     -412.184     173.602     335.163
  C     -411.466     174.233     332.905
  C     -410.521     174.837     332.190
  O     -407.715     172.654     326.659
  O     -409.425     171.544     328.201
  H     -406.112     176.874     333.338
  H     -408.694     170.898     328.235
  H     -412.347     173.780     332.466
  H     -410.594     174.899     331.110
  H     -408.403     177.161     332.379
  H     -406.891     174.847     333.128
  H     -407.289     173.788     330.993
  H     -406.851     176.548     329.754
  H     -412.007     173.584     336.161
  H     -408.367     175.671     327.994
  H     -413.043     173.210     334.809
  H     -406.889     174.725     328.095
  P     -404.905     173.052     330.412
  C     -403.103     173.248     328.558
  O     -403.377     173.104     329.941
  O     -405.681     172.556     329.098
  O     -405.187     172.158     331.581
  H     -405.889     171.606     329.181
  H     -402.066     173.581     328.442
  H     -403.764     173.989     328.100
  H     -403.225     172.286     328.058
  H     -411.494     173.446     325.263
  H     -410.842     171.900     325.752
  H     -409.842     173.033     324.875

 3  4  5  6  7  8  9  10  11  12  13  23  27  28  29  30  32 0
 6-311+G(2d,p)
 ****
 34  35 0
 6-311+G(2d,p)
 ****
 1  2  14  15  16  17  18  19  20  21  22  24  25  26 0
 3-21G
 ****
 31  33  36  37  38  39  40  41  42  43  44  45  46 0
 3-21G
 ****


