%nproc=1
%NoSave
%Mem=1900MB
#P OB98/GEN NMR

erre ene a

0 1
  C      795.770    1045.469     200.623
  O      794.975    1044.621     199.820
  H      795.429    1045.384     201.664
  H      795.647    1046.508     200.300
  H      796.821    1045.192     200.588
  P      795.441    1044.325     198.322
  C      793.198    1044.690     197.099
  O      794.150    1043.749     197.554
  C      791.803    1044.059     196.986
  O      791.886    1042.881     196.128
  C      791.217    1043.614     198.325
  O      789.789    1043.734     198.250
  C      791.611    1042.151     198.370
  O      790.853    1041.422     199.312
  C      791.411    1041.761     196.903
  N      792.107    1040.516     196.549
  C      791.548    1039.339     197.043
  O      790.558    1039.300     197.771
  N      792.214    1038.190     196.717
  C      793.384    1038.099     196.015
  O      793.949    1037.042     195.777
  C      793.943    1039.386     195.552
  C      793.291    1040.514     195.840
  O      796.679    1043.504     198.171
  O      795.616    1045.775     197.662
  H      791.061    1040.466     199.258
  H      796.305    1045.755     196.970
  H      791.829    1037.319     197.054
  H      794.879    1039.360     195.005
  H      793.677    1041.477     195.513
  H      790.349    1041.619     196.677
  H      792.665    1042.042     198.651
  H      791.594    1044.182     199.182
  H      791.131    1044.766     196.481
  H      793.522    1045.051     196.106
  H      793.166    1045.542     197.785
  P      789.000    1045.003     198.825
  C      787.139    1043.310     199.394
  O      787.450    1044.633     198.955
  O      789.271    1046.284     198.100
  O      789.480    1045.112     200.367
  H      789.426    1046.028     200.656
  H      786.077    1043.190     199.439
  H      787.558    1043.149     200.365
  H      787.550    1042.600     198.706

 6  7  8  9  10  11  12  13  14  15  16  26  31  32  33  34  35 0
 6-311+G(2d,p)
 ****
 36  37 0
 6-311+G(2d,p)
 ****
 1  2  3  4  5  17  18  19  20  21  22  23  24  25 0
 3-21G
 ****
 27  28  29  30  38  39  40  41  42  43  44  45 0
 3-21G
 ****


