%nproc=1
%NoSave
%Mem=1900MB
#P OB98/GEN NMR

erre ene a

0 1
  C      109.003       4.705       8.225
  O      110.241       4.820       8.902
  P      110.243       5.380      10.402
  C      110.774       7.858       9.820
  O      111.210       6.660      10.442
  C      111.960       8.794       9.576
  O      111.496       9.989       8.878
  C      112.662       9.260      10.861
  O      114.057       9.407      10.561
  C      112.045      10.625      11.095
  O      112.820      11.451      11.949
  C      111.937      11.124       9.650
  N      111.029      12.260       9.506
  C      111.556      13.529       9.717
  O      112.729      13.747      10.016
  N      110.665      14.565       9.634
  C      109.317      14.454       9.457
  O      108.557      15.414       9.510
  C      108.817      13.089       9.239
  C      109.680      12.071       9.272
  O      111.056       4.264      11.209
  O      108.888       5.613      10.982
  H      112.314      12.269      12.104
  H      110.443       3.673      11.685
  H      111.032      15.494       9.774
  H      107.754      12.966       9.073
  H      109.336      11.052       9.135
  H      112.929      11.401       9.271
  H      111.055      10.504      11.550
  H      112.523       8.581      11.707
  H      112.674       8.289       8.914
  H      110.051       8.356      10.467
  H      110.271       7.620       8.876
  P      115.110       9.173      11.752
  C      115.597      11.681      12.300
  O      116.066      10.456      11.779
  O      116.026       8.021      11.116
  O      114.475       8.785      13.046
  H      116.241       8.186      10.184
  H      114.904      11.526      13.130
  H      115.094      12.241      11.508
  H      116.451      12.263      12.656
  H      109.169       4.319       7.241
  H      108.543       5.669       8.157
  H      108.361       4.041       8.765

 3  4  5  6  7  8  9  10  11  12  13  23  28  29  30  31  32 0
 6-311+G(2d,p)
 ****
 33  34 0
 6-311+G(2d,p)
 ****
 1  2  14  15  16  17  18  19  20  21  22  24  25  26 0
 3-21G
 ****
 27  35  36  37  38  39  40  41  42  43  44  45 0
 3-21G
 ****


