%nproc=1
%NoSave
%Mem=1900MB
#P OB98/GEN NMR

erre ene a

0 1
  C      290.183     189.272    -371.135
  O      289.982     189.845    -372.413
  P      288.769     190.868    -372.693
  C      287.787     189.494    -374.652
  O      288.425     190.694    -374.250
  C      287.757     189.393    -376.181
  O      286.978     190.501    -376.699
  C      289.139     189.443    -376.845
  O      289.087     188.590    -377.995
  C      289.256     190.900    -377.261
  O      290.203     191.087    -378.309
  C      287.812     191.213    -377.645
  N      287.519     192.641    -377.631
  C      287.453     193.303    -378.864
  O      287.660     192.699    -379.913
  N      287.158     194.640    -378.874
  C      287.027     195.282    -377.752
  N      286.673     196.596    -377.821
  C      287.198     194.647    -376.435
  C      287.417     193.337    -376.451
  O      289.024     192.272    -372.266
  O      287.512     190.180    -371.991
  H      290.125     192.005    -378.632
  H      287.438     190.400    -371.028
  H      287.102     195.230    -375.527
  H      287.529     192.782    -375.529
  H      287.579     190.795    -378.635
  H      289.579     191.499    -376.405
  H      289.942     189.109    -376.182
  H      287.234     188.469    -376.454
  H      286.397     196.948    -378.731
  H      286.759     189.507    -374.281
  H      286.243     197.061    -377.027
  H      288.301     188.636    -374.213
  P      290.393     187.721    -378.353
  C      290.743     188.926    -380.621
  O      290.558     187.709    -379.948
  O      289.872     186.227    -378.057
  O      291.618     187.993    -377.547
  H      290.635     185.660    -377.843
  H      290.842     188.730    -381.689
  H      291.654     189.426    -380.274
  H      289.881     189.587    -380.466
  H      291.036     188.627    -371.164
  H      289.318     188.707    -370.857
  H      290.347     190.049    -370.418

 3  4  5  6  7  8  9  10  11  12  13  23  27  28  29  30  32 0
 6-311+G(2d,p)
 ****
 34  35 0
 6-311+G(2d,p)
 ****
 1  2  14  15  16  17  18  19  20  21  22  24  25  26 0
 3-21G
 ****
 31  33  36  37  38  39  40  41  42  43  44  45  46 0
 3-21G
 ****


