%nproc=1
%NoSave
%Mem=1900MB
#P OB98/GEN NMR

erre ene a

0 1
  C      367.244       7.891     119.068
  O      366.239       7.022     119.549
  H      367.316       8.752     119.734
  H      366.995       8.241     118.063
  H      368.208       7.375     119.053
  P      365.899       5.737     118.652
  C      365.938       5.336     116.085
  O      365.714       6.256     117.148
  C      364.625       5.058     115.369
  O      364.295       6.164     114.493
  C      364.658       3.831     114.465
  O      364.520       2.615     115.182
  C      363.467       4.101     113.562
  O      362.236       3.667     114.160
  C      363.501       5.634     113.414
  N      364.012       6.036     112.108
  C      363.053       6.410     111.170
  O      361.848       6.415     111.406
  N      363.529       6.748     109.930
  C      364.831       6.700     109.534
  O      365.184       6.966     108.389
  C      365.801       6.284     110.557
  C      365.356       5.972     111.779
  O      364.413       5.354     119.115
  O      366.846       4.594     118.812
  H      364.436       4.554     119.669
  H      362.171       4.132     115.015
  H      362.849       7.028     109.243
  H      366.844       6.234     110.275
  H      366.044       5.649     112.551
  H      362.494       6.053     113.530
  H      363.565       3.581     112.616
  H      365.572       3.830     113.859
  H      363.829       4.962     116.120
  H      366.332       4.396     116.487
  H      366.683       5.762     115.399
  P      364.700       1.245     114.372
  C      363.491       0.389     112.198
  O      363.434       1.148     113.393
  O      364.403       0.177     115.528
  O      366.035       1.115     113.721
  H      363.814       0.543     116.215
  H      362.551       0.452     111.690
  H      363.701      -0.633     112.434
  H      364.264       0.775     111.567

 6  7  8  9  10  11  12  13  14  15  16  27  31  32  33  34  35 0
 6-311+G(2d,p)
 ****
 36  37 0
 6-311+G(2d,p)
 ****
 1  2  3  4  5  17  18  19  20  21  22  23  24  25 0
 3-21G
 ****
 26  28  29  30  38  39  40  41  42  43  44  45 0
 3-21G
 ****


