%nproc=1
%NoSave
%Mem=1900MB
#P OB98/GEN NMR

erre ene a

0 1
  C       42.708     -16.176       6.300
  O       41.727     -15.280       5.772
  P       42.212     -13.797       5.389
  C       40.676     -12.553       7.099
  O       40.983     -12.827       5.743
  C       39.166     -12.375       7.291
  O       38.758     -11.063       6.799
  C       38.309     -13.427       6.579
  O       37.193     -13.705       7.437
  C       37.845     -12.702       5.330
  O       36.670     -13.282       4.782
  C       37.671     -11.282       5.876
  N       37.648     -10.269       4.824
  C       36.517     -10.221       4.021
  O       35.598     -11.032       4.113
  N       36.498      -9.236       3.071
  C       37.514      -8.364       2.803
  O       37.445      -7.499       1.939
  C       38.731      -8.537       3.611
  C       38.741      -9.468       4.567
  O       42.217     -13.868       3.794
  O       43.518     -13.433       6.014
  H       41.492     -14.402       3.427
  H       35.987     -13.341       5.481
  H       35.672      -9.163       2.498
  H       39.580      -7.903       3.388
  H       39.628      -9.636       5.163
  H       36.738     -11.204       6.450
  H       38.632     -12.729       4.569
  H       38.855     -14.351       6.371
  H       38.958     -12.394       8.368
  H       41.182     -11.635       7.415
  H       41.063     -13.362       7.727
  P       37.355     -14.862       8.545
  C       35.116     -16.097       7.988
  O       35.881     -15.365       8.918
  O       37.763     -13.975       9.817
  O       38.367     -15.910       8.222
  H       37.195     -13.197       9.937
  H       34.263     -16.541       8.508
  H       35.703     -16.901       7.537
  H       34.742     -15.430       7.207
  H       42.252     -17.121       6.510
  H       43.115     -15.768       7.202
  H       43.492     -16.309       5.584

 3  4  5  6  7  8  9  10  11  12  13  24  28  29  30  31  32 0
 6-311+G(2d,p)
 ****
 33  34 0
 6-311+G(2d,p)
 ****
 1  2  14  15  16  17  18  19  20  21  22  23  25  26  27 0
 3-21G
 ****
 35  36  37  38  39  40  41  42  43  44  45 0
 3-21G
 ****


