%nproc=1
%NoSave
%Mem=1900MB
#P OB98/GEN NMR

erre ene a

0 1
  C      111.638    -340.247     108.556
  O      112.078    -340.080     107.217
  H      112.313    -340.949     109.053
  H      110.625    -340.661     108.564
  H      111.661    -339.290     109.083
  P      111.332    -338.948     106.350
  C      109.479    -340.507     105.309
  O      109.812    -339.446     106.204
  C      108.088    -341.052     105.624
  O      107.107    -340.004     105.388
  C      107.688    -342.259     104.773
  O      106.931    -343.162     105.587
  C      106.799    -341.666     103.692
  O      105.905    -342.637     103.126
  C      106.125    -340.508     104.456
  N      105.659    -339.456     103.556
  C      104.429    -338.853     103.878
  O      103.777    -339.243     104.844
  N      103.939    -337.872     103.050
  C      104.583    -337.553     101.972
  N      104.038    -336.584     101.185
  C      105.865    -338.191     101.566
  C      106.345    -339.110     102.409
  O      111.954    -339.188     104.893
  O      111.500    -337.555     106.883
  H      105.391    -342.186     102.418
  H      112.043    -340.127     104.663
  H      106.358    -337.896     100.656
  H      107.281    -339.617     102.190
  H      105.274    -340.884     105.033
  H      107.419    -341.268     102.878
  H      108.536    -342.785     104.347
  H      108.033    -341.287     106.698
  H      103.152    -336.178     101.486
  H      110.217    -341.315     105.389
  H      104.428    -336.299     100.296
  H      109.513    -340.109     104.297
  P      107.481    -344.645     105.838
  C      106.375    -345.975     103.940
  O      107.581    -345.424     104.444
  O      106.813    -345.395     106.941
  O      109.025    -344.380     106.205
  H      109.288    -345.014     106.915
  H      106.569    -346.467     103.010
  H      105.662    -345.192     103.787
  H      105.985    -346.681     104.643

 6  7  8  9  10  11  12  13  14  15  16  26  30  31  32  33  35 0
 6-311+G(2d,p)
 ****
 37  38 0
 6-311+G(2d,p)
 ****
 1  2  3  4  5  17  18  19  20  21  22  23  24  25 0
 3-21G
 ****
 27  28  29  34  36  39  40  41  42  43  44  45  46 0
 3-21G
 ****


