%nproc=1
%NoSave
%Mem=1900MB
#P OB98/GEN NMR

erre ene a

0 1
  C     -129.822      30.155       4.831
  O     -130.417      31.002       5.804
  P     -129.449      31.668       6.901
  C     -129.045      33.307       4.928
  O     -128.507      32.680       6.087
  C     -128.924      34.824       5.035
  O     -129.582      35.292       6.229
  C     -127.497      35.341       5.124
  O     -126.880      35.435       3.851
  C     -127.727      36.726       5.705
  O     -128.155      37.627       4.666
  C     -128.874      36.473       6.690
  N     -126.412      38.591      10.638
  C     -126.641      39.028       9.382
  N     -127.296      38.400       8.384
  C     -127.703      37.181       8.776
  C     -127.509      36.587      10.011
  C     -126.837      37.351      10.979
  N     -126.630      36.915      12.268
  N     -128.067      35.328      10.037
  C     -128.599      35.168       8.845
  N     -128.414      36.263       8.049
  O     -128.460      30.470       7.283
  O     -130.142      32.229       8.095
  H     -127.530      37.520       3.924
  H     -128.078      30.622       8.169
  H     -126.255      40.017       9.150
  H     -129.131      34.285       8.518
  H     -129.595      37.297       6.710
  H     -126.825      37.157       6.149
  H     -126.900      34.744       5.825
  H     -129.440      35.265       4.171
  H     -130.100      33.038       4.833
  H     -126.309      37.587      12.947
  H     -127.121      36.082      12.573
  H     -128.510      32.943       4.045
  P     -125.300      35.153       3.790
  C     -125.408      32.800       2.695
  O     -125.151      33.561       3.859
  O     -124.787      35.655       5.220
  O     -124.601      35.838       2.663
  H     -123.847      35.913       5.174
  H     -124.969      31.807       2.821
  H     -124.965      33.267       1.812
  H     -126.487      32.694       2.553
  H     -130.578      29.785       4.171
  H     -129.341      29.333       5.320
  H     -129.099      30.709       4.270

 3  4  5  6  7  8  9  10  11  12  22  25  29  30  31  32 0
 6-311+G(2d,p)
 ****
 33  36  37 0
 6-311+G(2d,p)
 ****
 1  2  13  14  15  16  17  18  19  20  21  23  24  26 0
 3-21G
 ****
 27  28  34  35  38  39  40  41  42  43  44  45  46  47  48 0
 3-21G
 ****


