%nproc=1
%NoSave
%Mem=1900MB
#P OB98/GEN NMR

erre ene a

0 1
  C      115.289    -474.023     385.826
  O      116.016    -473.438     384.762
  P      115.784    -471.902     384.378
  C      113.924    -470.587     383.110
  O      114.461    -471.842     383.474
  C      112.855    -470.736     382.020
  O      113.531    -471.029     380.778
  C      111.864    -471.870     382.249
  O      110.716    -471.645     381.426
  C      112.638    -473.062     381.716
  O      111.788    -474.161     381.391
  C      113.416    -472.452     380.521
  N      114.755    -473.056     380.382
  C      114.809    -474.387     379.973
  O      113.806    -475.028     379.663
  N      116.036    -474.977     380.014
  C      117.184    -474.378     380.467
  O      118.198    -474.997     380.793
  C      117.112    -472.922     380.661
  C      115.908    -472.331     380.634
  O      116.968    -471.616     383.338
  O      115.814    -470.956     385.527
  H      112.369    -474.914     381.135
  H      117.722    -471.196     383.797
  H      116.054    -475.976     379.859
  H      118.028    -472.386     380.869
  H      115.820    -471.270     380.813
  H      112.875    -472.602     379.573
  H      113.339    -473.403     382.484
  H      111.567    -472.012     383.289
  H      112.330    -469.774     381.902
  H      114.735    -469.934     382.774
  H      113.485    -470.103     383.984
  P      109.274    -471.916     382.072
  C      107.637    -473.902     382.101
  O      108.958    -473.470     381.833
  O      108.191    -470.972     381.665
  O      109.555    -471.850     383.645
  H      108.721    -471.706     384.129
  H      107.404    -474.751     381.459
  H      106.910    -473.103     381.914
  H      107.565    -474.211     383.143
  H      115.576    -475.048     385.933
  H      114.241    -473.966     385.616
  H      115.500    -473.497     386.734

 3  4  5  6  7  8  9  10  11  12  13  23  28  29  30  31  32 0
 6-311+G(2d,p)
 ****
 33  34 0
 6-311+G(2d,p)
 ****
 1  2  14  15  16  17  18  19  20  21  22  24  25  26  27 0
 3-21G
 ****
 35  36  37  38  39  40  41  42  43  44  45 0
 3-21G
 ****


