%nproc=1
%NoSave
%Mem=1900MB
#P OB98/GEN NMR

erre ene a

0 1
  C       47.384    -753.859     301.228
  O       48.541    -754.068     302.028
  P       48.879    -755.398     302.826
  C       47.597    -755.034     305.090
  O       47.680    -755.703     303.845
  C       46.476    -755.628     305.964
  O       46.789    -757.036     306.218
  C       46.374    -754.933     307.334
  O       45.031    -754.705     307.751
  C       47.237    -755.812     308.225
  O       46.956    -755.656     309.610
  C       46.984    -757.204     307.646
  N       49.584    -759.888     311.125
  C       48.619    -758.920     311.309
  N       48.307    -758.606     312.586
  N       48.015    -758.296     310.325
  C       48.471    -758.647     309.102
  C       49.437    -759.576     308.799
  C       50.058    -760.301     309.888
  O       50.905    -761.184     309.773
  N       49.628    -759.672     307.439
  C       48.806    -758.774     306.937
  N       48.067    -758.140     307.906
  O       50.264    -755.511     303.372
  O       48.704    -756.564     301.720
  H       47.183    -756.496     310.053
  H       49.351    -757.262     301.957
  H       49.997    -760.354     311.916
  H       48.680    -758.564     305.872
  H       46.085    -757.668     308.051
  H       48.277    -755.519     308.076
  H       48.816    -758.958     313.385
  H       46.804    -753.929     307.297
  H       47.766    -757.753     312.714
  H       45.538    -755.582     305.416
  H       47.361    -753.988     304.857
  H       48.556    -755.047     305.612
  P       44.287    -753.310     307.994
  C       44.734    -753.130     310.515
  O       44.980    -752.579     309.236
  O       42.846    -753.714     308.572
  O       44.137    -752.466     306.775
  H       42.145    -753.398     307.964
  H       45.026    -752.405     311.270
  H       45.322    -754.035     310.640
  H       43.670    -753.363     310.638
  H       47.413    -752.875     300.808
  H       46.508    -753.962     301.834
  H       47.360    -754.582     300.440

 3  4  5  6  7  8  9  10  11  12  23  26  30  31 0
 6-311+G(2d,p)
 ****
 33  35  36  37  38 0
 6-311+G(2d,p)
 ****
 1  2  13  14  15  16  17  18  19  20  21  22  24  25 0
 3-21G
 ****
 27  28  29  32  34  39  40  41  42  43  44  45  46  47  48  49 0
 3-21G
 ****


