%nproc=1
%NoSave
%Mem=1900MB
#P OB98/GEN NMR

erre ene a

0 1
  C      386.008    -958.424     197.823
  O      386.774    -957.355     198.395
  P      386.179    -955.882     198.644
  C      386.756    -955.598     201.154
  O      387.030    -955.179     199.808
  C      387.819    -955.071     202.107
  O      389.120    -955.638     201.795
  C      388.056    -953.563     202.066
  O      386.995    -952.830     202.669
  C      389.389    -953.443     202.787
  O      389.225    -953.407     204.210
  C      390.105    -954.751     202.380
  N      391.210    -954.537     201.458
  C      392.451    -954.209     202.037
  O      392.550    -954.050     203.245
  N      393.535    -954.068     201.221
  C      393.383    -954.124     199.921
  N      394.496    -953.989     199.151
  C      392.067    -954.317     199.266
  C      391.040    -954.531     200.077
  O      384.700    -955.851     198.868
  O      386.574    -955.047     197.322
  H      385.935    -954.320     197.208
  H      388.870    -952.532     204.431
  H      391.986    -954.328     198.185
  H      390.043    -954.698     199.700
  H      390.478    -955.281     203.270
  H      389.937    -952.532     202.500
  H      388.173    -953.251     201.024
  H      387.556    -955.375     203.127
  H      395.378    -953.859     199.627
  H      386.758    -956.697     201.189
  H      394.490    -954.041     198.141
  H      385.758    -955.256     201.437
  P      386.397    -951.602     201.834
  C      383.901    -952.318     201.621
  O      384.839    -951.465     202.229
  O      386.353    -952.147     200.335
  O      387.186    -950.332     201.931
  H      386.608    -951.436     199.716
  H      383.050    -952.444     202.287
  H      384.338    -953.300     201.392
  H      383.546    -951.859     200.686
  H      386.615    -959.302     197.757
  H      385.679    -958.143     196.844
  H      385.158    -958.624     198.441

 3  4  5  6  7  8  9  10  11  12  13  24  27  28  29  30  32 0
 6-311+G(2d,p)
 ****
 34  35 0
 6-311+G(2d,p)
 ****
 1  2  14  15  16  17  18  19  20  21  22  23  25  26 0
 3-21G
 ****
 31  33  36  37  38  39  40  41  42  43  44  45  46 0
 3-21G
 ****


