%nproc=1
%NoSave
%Mem=1900MB
#P OB98/GEN NMR

erre ene a

0 1
  C     -820.709       2.100    -446.084
  O     -820.526       3.489    -446.291
  H     -820.405       1.858    -445.065
  H     -820.093       1.538    -446.792
  H     -821.759       1.824    -446.205
  P     -821.197       4.176    -447.571
  C     -819.436       3.514    -449.344
  O     -820.760       3.315    -448.850
  C     -819.105       2.490    -450.437
  O     -820.084       2.610    -451.509
  C     -817.729       2.757    -451.059
  O     -817.123       1.558    -451.550
  C     -818.048       3.675    -452.218
  O     -817.053       3.658    -453.241
  C     -819.405       3.122    -452.675
  N     -820.268       5.866    -456.888
  C     -819.170       5.101    -456.554
  N     -818.172       5.050    -457.467
  N     -819.054       4.455    -455.427
  C     -820.087       4.644    -454.583
  C     -821.218       5.409    -454.777
  C     -821.355       6.089    -456.051
  O     -822.305       6.794    -456.390
  N     -822.047       5.369    -453.679
  C     -821.424       4.602    -452.829
  N     -820.241       4.114    -453.326
  O     -820.352       5.534    -447.756
  O     -822.667       4.454    -447.458
  H     -817.131       2.828    -453.728
  H     -820.871       6.183    -448.260
  H     -820.316       6.318    -457.776
  H     -821.783       4.344    -451.828
  H     -819.265       2.287    -453.377
  H     -818.108       4.694    -451.845
  H     -818.135       5.692    -458.257
  H     -817.046       3.235    -450.361
  H     -817.245       4.759    -457.117
  H     -819.197       1.468    -450.039
  H     -818.764       3.409    -448.497
  H     -819.321       4.532    -449.721
  P     -815.864       0.958    -450.783
  C     -813.963       2.215    -452.128
  O     -814.617       1.948    -450.908
  O     -815.430      -0.308    -451.673
  O     -816.141       0.562    -449.356
  H     -815.560      -1.134    -451.175
  H     -813.162       2.905    -451.960
  H     -814.660       2.639    -452.821
  H     -813.571       1.304    -452.529

 6  7  8  9  10  11  12  13  14  15  26  29  33  34 0
 6-311+G(2d,p)
 ****
 36  38  39  40  41 0
 6-311+G(2d,p)
 ****
 1  2  3  4  5  16  17  18  19  20  21  22  23  24  25 0
 3-21G
 ****
 27  28  30  31  32  35  37  42  43  44  45  46  47 0
 3-21G
 ****
 48  49 0
 3-21G
 ****


