%nproc=1
%NoSave
%Mem=1900MB
#P OB98/GEN NMR

erre ene a

0 1
  C      117.980    -177.689      89.857
  O      119.170    -176.918      90.037
  P      120.475    -177.271      89.182
  C      122.269    -178.224      90.784
  O      121.231    -178.514      89.853
  C      123.099    -179.483      91.052
  O      122.273    -180.567      91.540
  C      123.761    -180.035      89.797
  O      124.810    -179.272      89.240
  C      124.079    -181.465      90.202
  O      125.299    -181.542      90.940
  C      122.873    -181.808      91.108
  N      121.894    -182.667      90.441
  C      122.293    -183.980      90.208
  O      123.410    -184.408      90.492
  N      121.368    -184.784      89.597
  C      120.128    -184.402      89.176
  O      119.348    -185.159      88.614
  C      119.772    -182.997      89.430
  C      120.657    -182.206      90.041
  O      121.346    -176.115      88.822
  O      119.854    -177.929      87.851
  H      125.358    -182.444      91.310
  H      120.368    -177.601      87.087
  H      121.637    -185.741      89.427
  H      118.798    -182.659      89.104
  H      120.415    -181.168      90.237
  H      123.210    -182.326      92.013
  H      124.192    -182.117      89.330
  H      122.992    -180.096      89.010
  H      123.835    -179.255      91.826
  H      121.839    -177.848      91.712
  H      122.891    -177.416      90.381
  P      124.756    -178.647      87.765
  C      125.115    -180.718      86.249
  O      124.206    -179.768      86.761
  O      125.930    -177.843      87.317
  O      123.484    -177.668      87.884
  H      123.639    -176.892      87.311
  H      124.574    -181.389      85.573
  H      125.544    -181.311      87.060
  H      125.911    -180.222      85.686
  H      117.213    -177.317      90.504
  H      118.180    -178.713      90.093
  H      117.657    -177.613      88.840

 3  4  5  6  7  8  9  10  11  12  13  23  28  29  30  31  32 0
 6-311+G(2d,p)
 ****
 33  34 0
 6-311+G(2d,p)
 ****
 1  2  14  15  16  17  18  19  20  21  22  24  25  26  27 0
 3-21G
 ****
 35  36  37  38  39  40  41  42  43  44  45 0
 3-21G
 ****


