%nproc=1
%NoSave
%Mem=1900MB
#P OB98/GEN NMR

erre ene a

0 1
  C     -471.249     631.883      97.199
  O     -470.399     632.490      96.251
  H     -472.280     631.942      96.846
  H     -471.179     632.409      98.160
  H     -470.983     630.829      97.344
  P     -468.820     632.329      96.489
  C     -468.465     631.593      94.024
  O     -468.124     632.511      95.056
  C     -467.723     631.952      92.728
  O     -466.310     632.114      92.993
  C     -467.837     630.896      91.638
  O     -469.051     631.014      90.902
  C     -466.631     631.262      90.771
  O     -466.950     632.420      89.976
  C     -465.582     631.620      91.839
  N     -460.933     629.603      91.696
  C     -461.409     630.775      91.137
  N     -460.523     631.517      90.433
  N     -462.644     631.183      91.254
  C     -463.425     630.341      91.978
  C     -463.061     629.150      92.575
  C     -461.691     628.707      92.445
  O     -461.213     627.700      92.938
  N     -464.118     628.581      93.224
  C     -465.132     629.412      93.007
  N     -464.752     630.486      92.243
  O     -468.647     630.759      96.780
  O     -468.244     633.148      97.595
  H     -466.206     632.556      89.354
  H     -467.942     630.638      97.444
  H     -459.973     629.323      91.559
  H     -466.136     629.274      93.373
  H     -464.904     632.409      91.504
  H     -466.354     630.464      90.088
  H     -459.571     631.227      90.259
  H     -467.692     629.882      92.037
  H     -460.839     632.397      90.046
  H     -468.111     632.913      92.385
  H     -469.544     631.635      93.839
  H     -468.188     630.575      94.346
  P     -469.885     629.672      90.614
  C     -472.018     630.985      91.282
  O     -471.388     630.157      90.327
  O     -469.985     628.993      92.053
  O     -469.279     628.757      89.601
  H     -470.130     628.025      91.967
  H     -473.008     631.222      90.951
  H     -471.455     631.888      91.398
  H     -472.069     630.473      92.220

 6  7  8  9  10  11  12  13  14  15  26  29  33  34 0
 6-311+G(2d,p)
 ****
 36  38  39  40  41 0
 6-311+G(2d,p)
 ****
 1  2  3  4  5  16  17  18  19  20  21  22  23  24  25 0
 3-21G
 ****
 27  28  30  31  32  35  37  42  43  44  45  46  47 0
 3-21G
 ****
 48  49 0
 3-21G
 ****


