%nproc=1
%NoSave
%Mem=1900MB
#P OB98/GEN NMR

erre ene a

0 1
  C     -173.689     208.659     647.010
  O     -172.730     209.183     647.942
  P     -171.202     209.432     647.527
  C     -168.933     208.226     647.533
  O     -170.336     208.085     647.714
  C     -168.168     206.902     647.709
  O     -168.337     206.375     649.053
  C     -168.576     205.784     646.740
  O     -167.404     204.998     646.517
  C     -169.588     205.001     647.568
  O     -169.818     203.686     647.084
  C     -168.930     205.064     648.943
  N     -169.585     202.844     653.518
  C     -168.473     203.076     652.783
  N     -168.373     203.704     651.598
  C     -169.576     204.161     651.188
  C     -170.795     204.010     651.835
  C     -170.773     203.313     653.053
  N     -171.905     203.032     653.792
  N     -171.811     204.584     651.101
  C     -171.222     205.058     650.021
  N     -169.862     204.832     650.028
  O     -170.585     210.637     648.167
  O     -171.247     209.625     645.938
  H     -168.954     203.272     646.915
  H     -170.699     210.397     645.692
  H     -167.543     202.695     653.200
  H     -171.721     205.551     649.199
  H     -168.122     204.324     649.030
  H     -170.551     205.532     647.556
  H     -168.992     206.152     645.800
  H     -167.096     207.131     647.599
  H     -168.558     208.956     648.261
  H     -171.803     202.443     654.600
  H     -172.809     203.253     653.397
  H     -168.741     208.629     646.533
  P     -166.709     204.918     645.078
  C     -167.407     204.046     642.771
  O     -167.667     204.015     644.158
  O     -165.275     204.480     645.089
  O     -166.872     206.384     644.462
  H     -166.233     206.509     643.737
  H     -167.773     204.982     642.341
  H     -167.915     203.207     642.295
  H     -166.330     203.954     642.576
  H     -174.642     208.572     647.490
  H     -173.369     207.695     646.674
  H     -173.770     209.320     646.173

 3  4  5  6  7  8  9  10  11  12  22  25  29  30  31  32 0
 6-311+G(2d,p)
 ****
 33  36  37 0
 6-311+G(2d,p)
 ****
 1  2  13  14  15  16  17  18  19  20  21  23  24  26 0
 3-21G
 ****
 27  28  34  35  38  39  40  41  42  43  44  45  46  47  48 0
 3-21G
 ****


