%nproc=1
%NoSave
%Mem=1900MB
#P OB98/GEN NMR

erre ene a

0 1
  C      -23.390     487.587    -126.887
  O      -22.728     488.824    -127.096
  P      -21.411     489.119    -126.225
  C      -19.810     487.869    -127.852
  O      -20.380     487.934    -126.551
  C      -18.287     487.962    -127.766
  O      -17.748     486.828    -127.056
  C      -17.587     487.961    -129.118
  O      -17.594     489.239    -129.730
  C      -16.174     487.576    -128.712
  O      -15.478     488.725    -128.200
  C      -16.427     486.559    -127.591
  N      -13.486     483.087    -129.798
  C      -13.159     484.334    -129.305
  N      -11.881     484.734    -129.478
  N      -14.008     485.117    -128.694
  C      -15.253     484.588    -128.601
  C      -15.694     483.364    -129.048
  C      -14.748     482.513    -129.734
  O      -14.988     481.422    -130.240
  N      -17.021     483.176    -128.764
  C      -17.383     484.279    -128.141
  N      -16.358     485.185    -128.058
  O      -21.876     488.801    -124.729
  O      -20.870     490.503    -126.365
  H      -15.296     489.306    -128.967
  H      -21.253     489.199    -124.092
  H      -12.796     482.521    -130.268
  H      -18.376     484.474    -127.754
  H      -15.713     486.672    -126.769
  H      -15.582     487.191    -129.548
  H      -11.195     484.205    -129.996
  H      -17.999     487.189    -129.781
  H      -11.631     485.671    -129.182
  H      -18.034     488.868    -127.200
  H      -20.194     488.695    -128.454
  H      -20.107     486.929    -128.328
  P      -18.349     489.358    -131.145
  C      -20.426     490.684    -130.324
  O      -19.907     489.453    -130.789
  O      -18.182     487.892    -131.764
  O      -17.812     490.421    -132.044
  H      -18.216     487.930    -132.740
  H      -21.519     490.649    -130.387
  H      -20.069     491.515    -130.934
  H      -20.139     490.839    -129.281
  H      -24.244     487.526    -127.529
  H      -23.706     487.519    -125.867
  H      -22.720     486.782    -127.107

 3  4  5  6  7  8  9  10  11  12  23  26  30  31 0
 6-311+G(2d,p)
 ****
 33  35  36  37  38 0
 6-311+G(2d,p)
 ****
 1  2  13  14  15  16  17  18  19  20  21  22  24  25 0
 3-21G
 ****
 27  28  29  32  34  39  40  41  42  43  44  45  46  47  48  49 0
 3-21G
 ****


