%nproc=1
%NoSave
%Mem=1900MB
#P OB98/GEN NMR

erre ene a

0 1
  C     -117.735     158.488      84.545
  O     -116.818     159.082      85.444
  P     -117.166     159.055      87.015
  C     -115.904     156.759      87.280
  O     -117.084     157.518      87.472
  C     -115.614     155.895      88.511
  O     -116.832     155.194      88.892
  C     -114.521     154.833      88.306
  O     -113.809     154.712      89.548
  C     -115.320     153.573      88.014
  O     -114.579     152.386      88.279
  C     -116.523     153.784      88.950
  N     -117.689     152.987      88.569
  C     -118.116     151.995      89.453
  O     -117.557     151.737      90.515
  N     -119.217     151.271      89.052
  C     -119.870     151.396      87.858
  O     -120.839     150.710      87.541
  C     -119.346     152.424      86.945
  C     -118.307     153.166      87.339
  O     -118.730     159.374      86.993
  O     -116.339     159.991      87.830
  H     -119.190     158.982      86.227
  H     -113.847     152.341      87.634
  H     -119.568     150.573      89.690
  H     -119.831     152.542      85.982
  H     -117.903     153.931      86.685
  H     -116.246     153.556      89.985
  H     -115.619     153.571      86.968
  H     -113.826     155.110      87.507
  H     -115.350     156.560      89.346
  H     -115.058     157.440      87.120
  H     -116.010     156.136      86.384
  P     -112.253     154.292      89.501
  C     -111.290     156.702      89.839
  O     -111.430     155.572      89.010
  O     -112.261     153.347      88.201
  O     -111.751     153.585      90.717
  H     -112.712     153.750      87.440
  H     -110.440     157.301      89.489
  H     -111.103     156.415      90.880
  H     -112.198     157.310      89.789
  H     -117.367     158.585      83.545
  H     -118.682     158.979      84.626
  H     -117.849     157.451      84.784

 3  4  5  6  7  8  9  10  11  12  13  24  28  29  30  31  32 0
 6-311+G(2d,p)
 ****
 33  34 0
 6-311+G(2d,p)
 ****
 1  2  14  15  16  17  18  19  20  21  22  23  25  26  27 0
 3-21G
 ****
 35  36  37  38  39  40  41  42  43  44  45 0
 3-21G
 ****


