%nproc=1
%NoSave
%Mem=1900MB
#P OB98/GEN NMR

erre ene a

0 1
  C      716.204    -668.568     -14.039
  O      716.208    -668.254     -15.412
  H      717.239    -668.594     -13.679
  H      715.756    -669.548     -13.873
  H      715.654    -667.806     -13.469
  P      714.777    -667.977     -16.093
  C      712.926    -669.454     -17.157
  O      714.259    -669.378     -16.668
  C      712.852    -670.396     -18.360
  O      713.386    -671.689     -18.009
  C      711.433    -670.633     -18.878
  O      711.002    -669.589     -19.739
  C      711.638    -671.935     -19.644
  O      712.279    -671.659     -20.906
  C      712.598    -672.697     -18.724
  N      709.918    -676.955     -18.057
  C      710.425    -676.396     -19.222
  N      710.172    -677.058     -20.376
  N      711.113    -675.274     -19.252
  C      711.282    -674.724     -18.028
  C      710.829    -675.190     -16.807
  C      710.075    -676.425     -16.786
  O      709.628    -676.977     -15.793
  N      711.213    -674.358     -15.784
  C      711.857    -673.385     -16.386
  N      711.927    -673.549     -17.746
  O      715.148    -667.142     -17.412
  O      713.804    -667.237     -15.235
  H      711.610    -671.249     -21.475
  H      714.451    -666.478     -17.570
  H      709.387    -677.804     -18.101
  H      712.311    -672.537     -15.877
  H      713.295    -673.333     -19.270
  H      710.701    -672.440     -19.859
  H      709.609    -677.883     -20.421
  H      710.724    -670.796     -18.057
  H      710.557    -676.670     -21.238
  H      713.487    -669.982     -19.149
  H      712.596    -668.450     -17.459
  H      712.284    -669.816     -16.348
  P      709.451    -669.168     -19.679
  C      707.221    -670.453     -20.051
  O      708.640    -670.474     -20.142
  O      709.301    -668.177     -20.921
  O      709.005    -668.555     -18.402
  H      708.526    -667.590     -20.784
  H      706.828    -671.387     -20.393
  H      706.836    -669.660     -20.658
  H      706.931    -670.295     -19.033

 6  7  8  9  10  11  12  13  14  15  26  29  33  34 0
 6-311+G(2d,p)
 ****
 36  38  39  40  41 0
 6-311+G(2d,p)
 ****
 1  2  3  4  5  16  17  18  19  20  21  22  23  24  25 0
 3-21G
 ****
 27  28  30  31  32  35  37  42  43  44  45  46  47 0
 3-21G
 ****
 48  49 0
 3-21G
 ****


