%nproc=1
%NoSave
%Mem=1900MB
#P OB98/GEN NMR

erre ene a

0 1
  C      225.284    -239.779      84.614
  O      224.685    -238.710      83.912
  P      225.198    -237.212      84.147
  C      222.735    -236.576      84.523
  O      223.961    -236.224      83.889
  C      221.734    -235.427      84.421
  O      222.231    -234.267      85.120
  C      221.466    -234.962      82.994
  O      220.608    -235.865      82.324
  C      220.875    -233.580      83.241
  O      219.479    -233.680      83.571
  C      221.682    -233.104      84.456
  N      222.767    -228.617      82.282
  C      221.623    -229.331      82.353
  N      221.421    -230.541      82.919
  C      222.570    -231.018      83.426
  C      223.822    -230.423      83.399
  C      223.896    -229.148      82.810
  N      225.044    -228.386      82.786
  N      224.761    -231.244      83.997
  C      224.088    -232.314      84.368
  N      222.753    -232.194      84.105
  O      226.457    -236.848      83.437
  O      225.400    -237.126      85.734
  H      219.162    -232.777      83.760
  H      226.335    -236.925      85.929
  H      220.748    -228.864      81.906
  H      224.516    -233.186      84.844
  H      221.049    -232.593      85.191
  H      220.957    -232.928      82.369
  H      222.415    -234.857      82.451
  H      220.802    -235.742      84.906
  H      222.944    -236.796      85.575
  H      224.950    -227.431      82.473
  H      225.794    -228.626      83.429
  H      222.326    -237.476      84.049
  P      221.201    -236.850      81.210
  C      220.573    -235.255      79.302
  O      220.410    -236.549      79.849
  O      221.282    -238.289      81.596
  O      222.657    -236.245      80.911
  H      223.266    -236.973      80.674
  H      219.958    -234.543      79.855
  H      220.248    -235.272      78.259
  H      221.620    -234.945      79.342
  H      224.815    -240.698      84.331
  H      225.164    -239.626      85.666
  H      226.326    -239.822      84.376

 3  4  5  6  7  8  9  10  11  12  22  25  29  30  31  32 0
 6-311+G(2d,p)
 ****
 33  36  37 0
 6-311+G(2d,p)
 ****
 1  2  13  14  15  16  17  18  19  20  21  23  24  26 0
 3-21G
 ****
 27  28  34  35  38  39  40  41  42  43  44  45  46  47  48 0
 3-21G
 ****


