%nproc=1
%NoSave
%Mem=1900MB
#P OB98/GEN NMR

erre ene a

0 1
  C      177.734     121.065    1669.301
  O      177.534     119.792    1668.715
  H      178.516     121.586    1668.732
  H      178.061     120.966    1670.335
  H      176.819     121.659    1669.242
  P      176.512     118.780    1669.423
  C      174.779     118.845    1667.504
  O      175.050     119.137    1668.872
  C      173.542     117.950    1667.376
  O      173.840     116.650    1667.946
  C      172.305     118.500    1668.117
  O      171.144     118.040    1667.393
  C      172.407     117.779    1669.453
  O      171.213     117.868    1670.183
  C      172.877     116.395    1668.986
  N      173.438     115.598    1670.076
  C      172.545     115.212    1671.071
  O      171.357     115.555    1671.020
  N      173.023     114.477    1672.137
  C      174.282     114.210    1672.210
  N      174.703     113.495    1673.293
  C      175.271     114.651    1671.210
  C      174.784     115.338    1670.160
  O      176.615     118.694    1670.911
  O      176.829     117.366    1668.737
  H      171.235     117.265    1670.956
  H      177.332     116.801    1669.357
  H      176.330     114.429    1671.332
  H      175.426     115.712    1669.379
  H      172.048     115.835    1668.536
  H      173.192     118.263    1670.075
  H      172.290     119.587    1668.189
  H      173.323     117.781    1666.307
  H      173.988     113.215    1673.969
  H      175.656     118.328    1667.090
  H      175.660     113.248    1673.475
  H      174.625     119.776    1666.937
  P      169.901     118.981    1667.060
  C      169.688     118.647    1664.506
  O      170.040     119.537    1665.561
  O      169.646     120.056    1668.088
  O      168.637     118.002    1666.955
  H      167.838     118.496    1667.244
  H      169.825     119.138    1663.565
  H      168.664     118.357    1664.611
  H      170.311     117.778    1664.549

 6  7  8  9  10  11  12  13  14  15  16  26  30  31  32  33  35 0
 6-311+G(2d,p)
 ****
 37  38 0
 6-311+G(2d,p)
 ****
 1  2  3  4  5  17  18  19  20  21  22  23  24  25 0
 3-21G
 ****
 27  28  29  34  36  39  40  41  42  43  44  45  46 0
 3-21G
 ****


