%nproc=1
%NoSave
%Mem=1900MB
#P OB98/GEN NMR

erre ene a

0 1
  C      107.637     225.959     153.978
  O      106.815     225.242     153.074
  H      107.934     226.904     153.511
  H      108.542     225.394     154.218
  H      107.087     226.179     154.897
  P      106.377     223.751     153.469
  C      107.757     221.658     154.121
  O      107.714     222.870     153.373
  C      108.363     220.542     153.276
  O      107.456     220.170     152.218
  C      109.660     220.948     152.588
  O      110.738     220.959     153.509
  C      109.745     219.899     151.496
  O      110.247     218.655     152.000
  C      108.260     219.767     151.078
  N      107.931     220.561     149.899
  C      108.653     220.266     148.739
  O      109.504     219.373     148.745
  N      108.401     221.001     147.608
  C      107.503     221.938     147.627
  N      107.308     222.631     146.470
  C      106.710     222.274     148.824
  C      106.974     221.554     149.916
  O      105.204     223.173     152.733
  O      106.114     223.839     155.045
  H      110.133     218.008     151.274
  H      105.184     224.077     155.224
  H      105.969     223.055     148.791
  H      106.437     221.736     150.841
  H      108.008     218.719     150.871
  H      110.400     220.218     150.686
  H      109.546     221.926     152.113
  H      108.513     219.660     153.919
  H      107.881     222.373     145.675
  H      106.724     221.410     154.395
  H      106.578     223.315     146.341
  H      108.336     221.792     155.043
  P      111.941     222.005     153.337
  C      113.524     222.477     151.358
  O      112.782     221.490     152.068
  O      112.739     222.259     154.576
  O      111.207     223.314     152.774
  H      110.690     223.774     153.484
  H      114.038     222.017     150.540
  H      114.235     222.931     152.016
  H      112.856     223.225     150.984

 6  7  8  9  10  11  12  13  14  15  16  26  30  31  32  33  35 0
 6-311+G(2d,p)
 ****
 37  38 0
 6-311+G(2d,p)
 ****
 1  2  3  4  5  17  18  19  20  21  22  23  24  25 0
 3-21G
 ****
 27  28  29  34  36  39  40  41  42  43  44  45  46 0
 3-21G
 ****


