%nproc=1
%NoSave
%Mem=1900MB
#P OB98/GEN NMR

erre ene a

0 1
  C       53.088     621.787     231.362
  O       53.963     622.832     230.996
  P       53.559     624.356     231.270
  C       54.015     625.352     228.930
  O       54.434     625.292     230.294
  C       54.547     626.618     228.259
  O       53.882     627.803     228.779
  C       56.035     626.855     228.484
  O       56.833     625.965     227.734
  C       56.148     628.326     228.098
  O       56.218     628.473     226.658
  C       54.808     628.897     228.627
  N       54.982     629.643     229.860
  C       55.933     630.678     229.814
  O       56.628     630.852     228.819
  N       56.073     631.484     230.922
  C       55.410     631.204     232.008
  N       55.527     632.072     233.053
  C       54.522     630.032     232.141
  C       54.329     629.322     231.029
  O       53.563     624.780     232.708
  O       52.083     624.479     230.647
  H       51.500     624.902     231.295
  H       56.242     629.450     226.474
  H       54.025     629.808     233.095
  H       53.671     628.451     231.016
  H       54.361     629.548     227.866
  H       57.038     628.800     228.513
  H       56.258     626.747     229.560
  H       54.328     626.543     227.190
  H       56.150     632.864     232.937
  H       52.911     625.353     228.903
  H       54.847     632.141     233.799
  H       54.381     624.461     228.410
  P       57.800     624.965     228.563
  C       59.164     624.547     226.403
  O       58.482     623.985     227.515
  O       56.766     624.041     229.358
  O       58.750     625.654     229.502
  H       57.127     623.814     230.253
  H       59.857     623.781     226.008
  H       59.745     625.427     226.705
  H       58.454     624.819     225.633
  H       53.527     620.847     231.102
  H       52.159     621.902     230.844
  H       52.915     621.820     232.417

 3  4  5  6  7  8  9  10  11  12  13  24  27  28  29  30  32 0
 6-311+G(2d,p)
 ****
 34  35 0
 6-311+G(2d,p)
 ****
 1  2  14  15  16  17  18  19  20  21  22  23  25  26 0
 3-21G
 ****
 31  33  36  37  38  39  40  41  42  43  44  45  46 0
 3-21G
 ****


