%nproc=1
%NoSave
%Mem=1900MB
#P OB98/GEN NMR

erre ene a

0 1
  C      278.685     281.175     109.477
  O      277.927     280.220     110.200
  P      276.324     280.168     110.094
  C      276.230     278.531     108.095
  O      276.007     279.850     108.559
  C      274.901     277.809     107.867
  O      275.168     276.526     107.249
  C      274.097     277.551     109.148
  O      272.708     277.665     108.809
  C      274.449     276.119     109.482
  O      273.481     275.493     110.315
  C      274.563     275.513     108.078
  N      275.353     274.279     108.063
  C      274.725     273.108     108.490
  O      273.564     273.119     108.889
  N      275.444     271.939     108.454
  C      276.688     271.952     108.111
  N      277.337     270.757     108.035
  C      277.417     273.184     107.754
  C      276.687     274.296     107.730
  O      275.624     281.366     110.644
  O      275.927     278.795     110.808
  H      273.901     274.733     110.759
  H      275.837     278.880     111.790
  H      278.467     273.150     107.503
  H      277.130     275.241     107.461
  H      273.568     275.325     107.664
  H      275.407     276.087     110.007
  H      274.330     278.260     109.948
  H      274.310     278.399     107.155
  H      276.765     269.921     108.111
  H      276.800     277.987     108.859
  H      278.175     270.648     107.479
  H      276.828     278.559     107.175
  P      271.696     278.214     109.924
  C      272.999     280.442     109.665
  O      272.301     279.568     110.529
  O      271.944     277.177     111.126
  O      270.244     278.222     109.557
  H      271.143     277.128     111.681
  H      273.329     281.310     110.241
  H      272.344     280.788     108.863
  H      273.873     279.945     109.242
  H      279.725     281.038     109.688
  H      278.389     282.161     109.769
  H      278.513     281.047     108.429

 3  4  5  6  7  8  9  10  11  12  13  23  27  28  29  30  32 0
 6-311+G(2d,p)
 ****
 34  35 0
 6-311+G(2d,p)
 ****
 1  2  14  15  16  17  18  19  20  21  22  24  25  26 0
 3-21G
 ****
 31  33  36  37  38  39  40  41  42  43  44  45  46 0
 3-21G
 ****


