%nproc=1
%NoSave
%Mem=1900MB
#P OB98/GEN NMR

erre ene a

0 1
  C     -577.439     280.454      51.756
  O     -578.652     281.152      51.985
  P     -579.034     281.704      53.450
  C     -579.155     279.453      54.709
  O     -579.875     280.520      54.129
  C     -580.055     278.682      55.675
  O     -580.241     279.426      56.885
  C     -581.466     278.402      55.131
  O     -581.447     277.348      54.176
  C     -582.215     278.104      56.422
  O     -581.958     276.760      56.856
  C     -581.564     279.105      57.410
  N     -582.349     280.309      57.613
  C     -582.707     280.583      58.940
  O     -582.370     279.852      59.861
  N     -583.447     281.732      59.188
  C     -583.794     282.502      58.211
  N     -584.455     283.651      58.526
  C     -583.473     282.215      56.794
  C     -582.758     281.113      56.571
  O     -579.683     283.031      53.470
  O     -577.645     281.648      54.263
  H     -582.372     276.167      56.206
  H     -577.106     282.469      54.170
  H     -583.798     282.886      56.015
  H     -582.462     280.848      55.575
  H     -581.378     278.616      58.375
  H     -583.293     278.246      56.346
  H     -581.866     279.306      54.668
  H     -579.545     277.729      55.923
  H     -584.497     283.888      59.511
  H     -578.310     279.861      55.282
  H     -584.497     284.434      57.883
  H     -578.765     278.796      53.919
  P     -582.313     277.540      52.835
  C     -584.696     277.142      53.822
  O     -583.631     276.631      53.044
  O     -581.459     276.773      51.737
  O     -582.575     278.965      52.484
  H     -580.956     277.413      51.185
  H     -585.574     276.522      53.653
  H     -584.932     278.167      53.508
  H     -584.425     277.122      54.875
  H     -577.377     280.175      50.725
  H     -577.413     279.575      52.365
  H     -576.612     281.085      52.005

 3  4  5  6  7  8  9  10  11  12  13  23  27  28  29  30  32 0
 6-311+G(2d,p)
 ****
 34  35 0
 6-311+G(2d,p)
 ****
 1  2  14  15  16  17  18  19  20  21  22  24  25  26 0
 3-21G
 ****
 31  33  36  37  38  39  40  41  42  43  44  45  46 0
 3-21G
 ****


