%nproc=1
%NoSave
%Mem=1900MB
#P OB98/GEN NMR

erre ene a

0 1
  C      955.166    -788.288    -771.100
  O      955.929    -787.169    -771.506
  H      955.460    -789.152    -771.705
  H      954.101    -788.087    -771.267
  H      955.339    -788.515    -770.049
  P      955.894    -785.843    -770.622
  C      958.142    -786.586    -769.590
  O      956.819    -786.125    -769.333
  C      959.052    -786.268    -768.397
  O      958.925    -784.854    -768.082
  C      958.721    -787.059    -767.114
  O      959.954    -787.265    -766.424
  C      957.837    -786.061    -766.385
  O      957.667    -786.419    -765.041
  C      958.605    -784.766    -766.677
  N      957.857    -783.562    -766.370
  C      958.064    -782.961    -765.134
  O      958.864    -783.386    -764.311
  N      957.306    -781.865    -764.870
  C      956.367    -781.300    -765.687
  O      955.734    -780.292    -765.408
  C      956.161    -781.991    -766.976
  C      956.904    -783.063    -767.251
  O      954.535    -785.299    -770.314
  O      956.770    -784.796    -771.467
  H      956.169    -784.223    -771.990
  H      958.536    -786.541    -764.600
  H      957.464    -781.410    -763.981
  H      955.420    -781.587    -767.644
  H      956.777    -783.601    -768.191
  H      959.550    -784.749    -766.137
  H      956.844    -786.028    -766.836
  H      958.235    -788.021    -767.328
  H      960.106    -786.433    -768.704
  H      958.513    -786.088    -770.492
  H      958.121    -787.667    -769.769
  P      960.654    -788.709    -766.279
  C      963.087    -787.956    -766.736
  O      961.987    -788.732    -767.197
  O      959.728    -789.852    -766.535
  O      961.222    -788.770    -764.782
  H      961.143    -789.680    -764.446
  H      963.903    -788.051    -767.422
  H      963.390    -788.305    -765.771
  H      962.795    -786.929    -766.669

 6  7  8  9  10  11  12  13  14  15  16  27  31  32  33  34  35 0
 6-311+G(2d,p)
 ****
 36  37 0
 6-311+G(2d,p)
 ****
 1  2  3  4  5  17  18  19  20  21  22  23  24  25 0
 3-21G
 ****
 26  28  29  30  38  39  40  41  42  43  44  45 0
 3-21G
 ****


