%nproc=1
%NoSave
%Mem=1900MB
#P OB98/GEN NMR

erre ene a

0 1
  C     -970.917     854.702      73.653
  O     -970.659     853.831      74.724
  P     -969.218     853.152      74.934
  C     -968.853     854.481      77.121
  O     -968.392     854.228      75.786
  C     -967.830     853.919      78.122
  O     -966.548     854.497      77.823
  C     -968.119     854.283      79.591
  O     -969.031     853.421      80.250
  C     -966.720     854.120      80.193
  O     -966.447     852.708      80.408
  C     -965.807     854.656      79.074
  N     -962.744     857.871      81.606
  C     -962.835     856.520      81.618
  N     -963.690     855.726      80.912
  C     -964.470     856.485      80.142
  C     -964.513     857.880      80.036
  C     -963.586     858.569      80.836
  N     -963.475     859.950      80.834
  N     -965.477     858.269      79.161
  C     -966.014     857.142      78.711
  N     -965.456     856.050      79.289
  O     -968.581     852.690      73.678
  O     -969.476     851.968      75.982
  H     -966.357     852.301      79.523
  H     -968.743     851.334      75.969
  H     -962.113     855.992      82.248
  H     -966.840     857.108      78.011
  H     -964.872     854.073      78.973
  H     -966.581     854.595      81.165
  H     -968.401     855.334      79.713
  H     -967.768     852.843      78.002
  H     -969.795     853.947      77.253
  H     -962.704     860.345      81.292
  H     -963.984     860.448      80.116
  H     -969.019     855.534      77.268
  P     -969.714     853.944      81.603
  C     -971.976     854.181      80.314
  O     -970.975     854.801      81.102
  O     -968.792     854.687      82.545
  O     -970.358     852.634      82.238
  H     -971.078     852.243      81.711
  H     -972.841     854.841      80.191
  H     -972.322     853.228      80.762
  H     -971.596     853.960      79.309
  H     -971.932     855.037      73.702
  H     -970.756     854.188      72.728
  H     -970.260     855.544      73.712

 3  4  5  6  7  8  9  10  11  12  22  25  29  30  31  32 0
 6-311+G(2d,p)
 ****
 33  36  37 0
 6-311+G(2d,p)
 ****
 1  2  13  14  15  16  17  18  19  20  21  23  24  26 0
 3-21G
 ****
 27  28  34  35  38  39  40  41  42  43  44  45  46  47  48 0
 3-21G
 ****


