%nproc=1
%NoSave
%Mem=1900MB
#P OB98/GEN NMR

erre ene a

0 1
  C     -166.481     -10.415      53.017
  O     -165.786     -11.553      53.494
  P     -164.298     -11.405      54.062
  C     -163.280     -12.985      52.264
  O     -163.499     -12.726      53.633
  C     -162.899     -14.453      52.031
  O     -161.578     -14.663      52.590
  C     -163.808     -15.467      52.717
  O     -163.614     -16.743      52.101
  C     -163.244     -15.490      54.121
  O     -163.614     -16.669      54.833
  C     -161.724     -15.314      53.874
  N     -161.094     -14.504      54.932
  C     -160.776     -15.157      56.120
  O     -160.927     -16.367      56.279
  N     -160.356     -14.358      57.148
  C     -160.277     -12.997      57.108
  O     -160.203     -12.287      58.102
  C     -160.392     -12.395      55.770
  C     -160.816     -13.160      54.761
  O     -164.503     -11.579      55.640
  O     -163.623     -10.119      53.729
  H     -163.131     -17.418      54.410
  H     -164.562     -10.705      56.071
  H     -160.265     -14.813      58.048
  H     -160.188     -11.338      55.666
  H     -160.961     -12.731      53.773
  H     -161.210     -16.282      53.838
  H     -163.635     -14.631      54.679
  H     -164.868     -15.200      52.708
  H     -162.846     -14.649      50.955
  H     -162.496     -12.319      51.890
  H     -164.182     -12.757      51.685
  P     -164.912     -17.637      51.803
  C     -163.805     -19.571      53.080
  O     -164.433     -19.165      51.879
  O     -165.693     -17.268      50.587
  O     -165.779     -17.472      53.141
  H     -166.705     -17.720      52.965
  H     -163.995     -20.636      53.234
  H     -164.187     -19.014      53.939
  H     -162.727     -19.411      52.993
  H     -167.454     -10.707      52.680
  H     -165.938      -9.980      52.205
  H     -166.577      -9.699      53.806

 3  4  5  6  7  8  9  10  11  12  13  23  28  29  30  31  32 0
 6-311+G(2d,p)
 ****
 33  34 0
 6-311+G(2d,p)
 ****
 1  2  14  15  16  17  18  19  20  21  22  24  25  26  27 0
 3-21G
 ****
 35  36  37  38  39  40  41  42  43  44  45 0
 3-21G
 ****


