%nproc=1
%NoSave
%Mem=1900MB
#P OB98/GEN NMR

erre ene a

0 1
  C     -241.610    -297.198      80.072
  O     -242.242    -298.467      79.897
  P     -242.337    -299.030      78.392
  C     -240.951    -301.231      78.264
  O     -240.975    -299.824      78.087
  C     -239.952    -301.622      79.349
  O     -240.385    -301.180      80.643
  C     -239.742    -303.122      79.488
  O     -238.862    -303.632      78.497
  C     -239.096    -303.205      80.864
  O     -237.688    -302.934      80.763
  C     -239.809    -302.073      81.630
  N     -241.290    -302.691      86.441
  C     -240.117    -302.165      85.936
  N     -239.222    -301.713      86.845
  N     -239.846    -302.084      84.659
  C     -240.845    -302.550      83.868
  C     -242.051    -303.090      84.246
  C     -242.325    -303.201      85.663
  O     -243.334    -303.690      86.163
  N     -242.806    -303.435      83.158
  C     -242.074    -303.074      82.124
  N     -240.867    -302.543      82.499
  O     -242.197    -297.697      77.509
  O     -243.601    -299.762      78.097
  H     -237.596    -302.042      80.368
  H     -242.644    -297.816      76.649
  H     -241.445    -302.733      87.430
  H     -242.375    -303.171      81.086
  H     -239.106    -301.486      82.231
  H     -239.203    -304.198      81.329
  H     -239.390    -301.680      87.834
  H     -240.702    -303.658      79.494
  H     -238.372    -301.291      86.486
  H     -238.988    -301.136      79.118
  H     -240.687    -301.719      77.325
  H     -241.966    -301.570      78.525
  P     -239.526    -304.148      77.126
  C     -238.059    -302.314      76.007
  O     -239.320    -302.950      76.076
  O     -241.089    -304.121      77.445
  O     -239.060    -305.494      76.683
  H     -241.551    -304.795      76.914
  H     -237.246    -303.040      76.044
  H     -237.963    -301.607      76.840
  H     -237.995    -301.763      75.067
  H     -241.611    -296.939      81.110
  H     -242.144    -296.454      79.518
  H     -240.601    -297.250      79.719

 3  4  5  6  7  8  9  10  11  12  23  26  30  31  33  0
 6-311+G(2d,p)
 ****
 35  36  37  38 0
 6-311+G(2d,p)
 ****
 1  2  13  14  15  16  17  18  19  20  21  22  24  25  27  28  29 0
 3-21G
 ****
 32  34  39  40  41  42  43  44  45  46  47  48  49 0
 3-21G
 ****


