%nproc=1
%NoSave
%Mem=1900MB
#P OB98/GEN NMR

erre ene a

0 1
  C      213.527     579.036     151.547
  O      214.623     578.216     151.897
  P      216.020     578.937     152.227
  C      217.806     580.196     150.807
  O      216.728     579.267     150.830
  C      218.969     579.604     150.001
  O      218.539     579.236     148.675
  C      220.123     580.586     149.797
  O      220.931     580.681     150.961
  C      220.845     579.969     148.606
  O      221.734     578.921     149.022
  C      219.670     579.391     147.788
  N      219.337     580.207     146.619
  C      220.077     579.964     145.476
  O      220.983     579.130     145.429
  N      219.779     580.739     144.389
  C      218.864     581.751     144.360
  O      218.680     582.452     143.367
  C      218.126     581.990     145.607
  C      218.396     581.225     146.665
  O      216.918     577.772     152.850
  O      215.908     580.109     153.150
  H      222.511     579.365     149.424
  H      217.495     578.131     153.554
  H      220.285     580.565     143.538
  H      217.397     582.780     145.612
  H      217.879     581.384     147.608
  H      219.913     578.386     147.436
  H      221.446     580.705     148.067
  H      219.726     581.574     149.508
  H      219.325     578.704     150.513
  H      218.128     580.405     151.823
  H      217.455     581.127     150.352
  P      221.785     582.032     151.144
  C      223.497     583.146     149.506
  O      222.930     581.958     150.011
  O      222.534     581.737     152.522
  O      220.934     583.260     151.154
  H      222.736     580.782     152.629
  H      223.589     583.913     150.288
  H      222.884     583.527     148.696
  H      224.494     582.927     149.121
  H      212.670     578.424     151.356
  H      213.768     579.597     150.668
  H      213.313     579.708     152.352

 3  4  5  6  7  8  9  10  11  12  13  23  28  29  30  31  32 0
 6-311+G(2d,p)
 ****
 33  34 0
 6-311+G(2d,p)
 ****
 1  2  14  15  16  17  18  19  20  21  22  24  25  26 0
 3-21G
 ****
 27  35  36  37  38  39  40  41  42  43  44  45 0
 3-21G
 ****


