%nproc=1
%NoSave
%Mem=1900MB
#P OB98/GEN NMR

erre ene a

0 1
  C      297.631     302.949     219.712
  O      298.950     302.482     219.527
  H      297.627     303.675     220.528
  H      296.971     302.119     219.980
  H      297.261     303.440     218.806
  P      299.266     301.530     218.278
  C      297.796     299.620     217.364
  O      298.436     300.174     218.506
  C      296.914     298.447     217.782
  O      296.006     298.857     218.830
  C      296.035     297.906     216.665
  O      296.778     297.132     215.742
  C      294.994     297.138     217.463
  O      295.479     295.840     217.826
  C      294.825     298.029     218.714
  N      293.611     298.845     218.643
  C      292.522     298.387     219.381
  O      292.546     297.371     220.068
  N      291.372     299.117     219.252
  C      291.174     300.143     218.374
  O      290.066     300.604     218.112
  C      292.371     300.620     217.669
  C      293.518     299.955     217.824
  O      300.709     301.342     217.956
  O      298.481     302.227     217.067
  H      299.117     302.720     216.514
  H      295.365     295.278     217.030
  H      290.566     298.769     219.750
  H      292.275     301.479     217.016
  H      294.409     300.263     217.289
  H      294.780     297.412     219.619
  H      294.071     297.003     216.894
  H      295.542     298.738     216.149
  H      297.560     297.654     218.187
  H      298.562     299.270     216.663
  H      297.197     300.398     216.876
  P      296.256     296.949     214.235
  C      294.050     296.246     213.117
  O      294.870     296.145     214.281
  O      297.264     296.408     213.275
  O      295.796     298.420     213.807
  H      296.200     298.638     212.942
  H      293.157     295.674     213.259
  H      294.585     295.869     212.270
  H      293.794     297.271     212.949

 6  7  8  9  10  11  12  13  14  15  16  27  31  32  33  34  35 0
 6-311+G(2d,p)
 ****
 36  37 0
 6-311+G(2d,p)
 ****
 1  2  3  4  5  17  18  19  20  21  22  23  24  25 0
 3-21G
 ****
 26  28  29  30  38  39  40  41  42  43  44  45 0
 3-21G
 ****


