%nproc=1
%NoSave
%Mem=1900MB
#P OB98/GEN NMR

erre ene a

0 1
  C     -689.050    1120.205     102.795
  O     -689.360    1118.807     102.764
  P     -688.621    1117.803     101.755
  C     -690.399    1118.580     100.077
  O     -689.010    1118.326     100.288
  C     -690.890    1117.791      98.856
  O     -689.996    1118.063      97.739
  C     -690.889    1116.285      98.994
  O     -692.066    1115.738      99.603
  C     -690.883    1115.859      97.532
  O     -692.188    1115.971      96.959
  C     -689.930    1116.882      96.905
  N     -686.634    1114.040      94.199
  C     -687.934    1114.367      94.001
  N     -688.752    1115.084      94.801
  C     -688.075    1115.594      95.834
  C     -686.754    1115.389      96.173
  C     -685.997    1114.591      95.280
  N     -684.665    1114.284      95.477
  N     -686.423    1116.038      97.337
  C     -687.531    1116.643      97.689
  N     -688.555    1116.426      96.805
  O     -688.872    1116.355     102.025
  O     -687.080    1118.208     101.874
  H     -692.492    1116.897      97.090
  H     -686.507    1117.476     101.505
  H     -688.401    1113.925      93.102
  H     -687.640    1117.264      98.584
  H     -690.251    1117.190      95.883
  H     -690.568    1114.821      97.391
  H     -689.982    1115.917      99.474
  H     -691.880    1118.169      98.583
  H     -690.510    1119.651      99.864
  H     -684.198    1113.797      94.713
  H     -684.163    1114.802      96.170
  H     -690.980    1118.319     100.953
  P     -691.897    1114.330     100.381
  C     -691.949    1113.251      98.002
  O     -691.351    1113.303      99.277
  O     -693.099    1113.916     101.132
  O     -690.614    1114.601     101.326
  H     -689.776    1114.696     100.845
  H     -691.337    1112.595      97.346
  H     -692.002    1114.237      97.551
  H     -692.952    1112.829      98.071
  H     -689.654    1120.688     103.535
  H     -689.249    1120.636     101.836
  H     -688.016    1120.336     103.037

 3  4  5  6  7  8  9  10  11  12  22  25  29  30  31  32 0
 6-311+G(2d,p)
 ****
 33  36  37 0
 6-311+G(2d,p)
 ****
 1  2  13  14  15  16  17  18  19  20  21  23  24  26 0
 3-21G
 ****
 27  28  34  35  38  39  40  41  42  43  44  45  46  47  48 0
 3-21G
 ****


