%nproc=1
%NoSave
%Mem=1900MB
#P OB98/GEN NMR

erre ene a

0 1
  C       -9.167      90.695    -567.217
  O       -8.020      91.528    -567.248
  P       -8.186      93.033    -566.705
  C       -8.675      92.323    -564.243
  O       -9.153      92.953    -565.422
  C       -8.890      93.241    -563.031
  O       -7.914      94.300    -563.032
  C      -10.244      93.928    -562.999
  O      -11.270      93.030    -562.597
  C       -9.959      95.048    -562.008
  O       -9.999      94.547    -560.663
  C       -8.512      95.445    -562.375
  N       -9.506     100.452    -562.845
  C       -9.703      99.583    -561.828
  N       -9.433      98.263    -561.787
  C       -8.894      97.849    -562.949
  C       -8.654      98.618    -564.073
  C       -8.978      99.977    -564.000
  N       -8.777     100.861    -565.039
  N       -8.113      97.841    -565.082
  C       -8.024      96.633    -564.567
  N       -8.464      96.593    -563.272
  O       -9.105      93.717    -567.815
  O       -6.901      93.768    -566.494
  H       -9.238      93.946    -560.554
  H       -8.870      94.663    -567.929
  H      -10.147     100.003    -560.930
  H       -7.635      95.764    -565.081
  H       -7.903      95.685    -561.495
  H      -10.678      95.876    -562.069
  H      -10.486      94.346    -563.986
  H       -8.743      92.636    -562.126
  H       -7.601      92.124    -564.343
  H       -9.173     101.781    -564.954
  H       -8.518     100.480    -565.942
  H       -9.188      91.371    -564.111
  P      -12.747      93.299    -563.161
  C      -12.493      92.656    -565.637
  O      -12.502      93.721    -564.691
  O      -13.101      94.703    -562.478
  O      -13.717      92.187    -562.934
  H      -12.390      95.350    -562.575
  H      -12.370      93.075    -566.641
  H      -13.428      92.101    -565.595
  H      -11.651      91.985    -565.435
  H       -8.917      89.729    -567.604
  H       -9.940      91.130    -567.816
  H       -9.510      90.597    -566.208

 3  4  5  6  7  8  9  10  11  12  22  25  29  30  31  32 0
 6-311+G(2d,p)
 ****
 33  36  37 0
 6-311+G(2d,p)
 ****
 1  2  13  14  15  16  17  18  19  20  21  23  24  26 0
 3-21G
 ****
 27  28  34  35  38  39  40  41  42  43  44  45  46  47  48 0
 3-21G
 ****


