%nproc=1
%NoSave
%Mem=1900MB
#P OB98/GEN NMR

erre ene a

0 1
  C     -534.515     451.336     783.715
  O     -535.562     450.763     782.948
  H     -534.949     451.985     784.481
  H     -533.861     451.949     783.083
  H     -533.930     450.551     784.200
  P     -535.168     449.904     781.650
  C     -536.257     447.904     780.428
  O     -536.217     448.694     781.607
  C     -537.383     446.875     780.512
  O     -537.197     446.040     781.679
  C     -538.757     447.506     780.669
  O     -539.221     448.026     779.434
  C     -539.546     446.325     781.217
  O     -539.935     445.429     780.177
  C     -538.510     445.671     782.158
  N     -538.674     446.072     783.558
  C     -539.618     445.338     784.288
  O     -540.246     444.417     783.764
  N     -539.840     445.701     785.603
  C     -539.173     446.673     786.128
  N     -539.445     446.963     787.437
  C     -538.164     447.459     785.396
  C     -537.975     447.114     784.122
  O     -533.742     449.487     781.525
  O     -535.635     450.833     780.426
  H     -540.507     444.765     780.599
  H     -534.913     451.430     780.153
  H     -537.633     448.270     785.877
  H     -537.253     447.637     783.514
  H     -538.573     444.578     782.114
  H     -540.453     446.660     781.733
  H     -538.738     448.284     781.439
  H     -537.335     446.237     779.620
  H     -540.143     446.419     787.898
  H     -535.288     447.398     780.330
  H     -538.929     447.656     787.973
  H     -536.395     448.542     779.541
  P     -540.794     448.165     779.150
  C     -542.171     449.836     777.750
  O     -540.986     449.629     778.520
  O     -541.683     447.838     780.306
  O     -541.012     447.204     777.893
  H     -540.986     446.249     778.151
  H     -542.188     450.842     777.385
  H     -543.030     449.665     778.365
  H     -542.183     449.156     776.924

 6  7  8  9  10  11  12  13  14  15  16  26  30  31  32  33  35 0
 6-311+G(2d,p)
 ****
 37  38 0
 6-311+G(2d,p)
 ****
 1  2  3  4  5  17  18  19  20  21  22  23  24  25 0
 3-21G
 ****
 27  28  29  34  36  39  40  41  42  43  44  45  46 0
 3-21G
 ****


