%nproc=1
%NoSave
%Mem=1900MB
#P OB98/GEN NMR

erre ene a

0 1
  C       92.618     -46.257     134.784
  O       92.284     -45.642     133.555
  H       92.344     -45.583     135.599
  H       93.695     -46.446     134.829
  H       92.067     -47.194     134.898
  P       92.588     -46.489     132.225
  C       94.406     -45.851     130.494
  O       94.104     -46.115     131.858
  C       95.915     -45.728     130.292
  O       96.601     -46.822     130.928
  C       96.358     -45.752     128.835
  O       96.190     -44.478     128.235
  C       97.828     -46.112     128.990
  O       98.580     -44.938     129.356
  C       97.806     -47.106     130.166
  N      100.567     -51.431     129.982
  C      100.915     -50.157     130.260
  N      100.138     -49.052     130.249
  C       98.877     -49.358     129.905
  C       98.375     -50.615     129.594
  C       99.281     -51.689     129.651
  N       98.919     -52.990     129.376
  N       97.032     -50.544     129.287
  C       96.716     -49.276     129.465
  N       97.805     -48.513     129.801
  O       91.588     -46.355     131.129
  O       92.739     -47.965     132.832
  H       98.394     -44.251     128.688
  H       93.202     -47.937     133.688
  H      101.956     -50.001     130.530
  H       95.718     -48.865     129.376
  H       98.661     -46.960     130.837
  H       98.264     -46.494     128.065
  H       95.852     -46.545     128.274
  H       96.244     -44.806     130.788
  H       93.909     -44.933     130.163
  H       99.660     -53.667     129.274
  H       97.993     -53.158     129.010
  H       94.013     -46.687     129.904
  P       96.262     -44.308     126.641
  C       98.102     -44.370     124.844
  O       97.805     -44.477     126.232
  O       95.612     -43.080     126.107
  O       95.586     -45.637     126.066
  H       95.054     -45.433     125.273
  H       99.153     -44.499     124.693
  H       97.806     -43.405     124.489
  H       97.569     -45.126     124.306

 6  7  8  9  10  11  12  13  14  15  25  28  32  33  34  35 0
 6-311+G(2d,p)
 ****
 36  39  40 0
 6-311+G(2d,p)
 ****
 1  2  3  4  5  16  17  18  19  20  21  22  23  24 0
 3-21G
 ****
 26  27  29  30  31  37  38  41  42  43  44  45  46  47 0
 3-21G
 ****
 48 0
 3-21G
 ****


