%nproc=1
%NoSave
%Mem=1900MB
#P OB98/GEN NMR

erre ene a

0 1
  C      199.133      45.717      32.426
  O      199.679      44.509      31.947
  H      199.577      46.545      31.864
  H      199.364      45.855      33.485
  H      198.050      45.732      32.275
  P      199.348      43.140      32.723
  C      201.273      43.847      34.264
  O      199.941      43.355      34.209
  C      201.908      43.594      35.634
  O      201.157      44.298      36.657
  C      201.955      42.113      36.029
  O      203.256      41.798      36.537
  C      200.916      42.003      37.137
  O      201.166      40.898      38.003
  C      201.014      43.396      37.772
  N      199.855      43.730      38.594
  C      199.694      42.997      39.775
  O      200.485      42.095      40.057
  N      198.623      43.271      40.586
  C      197.755      44.165      40.225
  N      196.709      44.385      41.069
  C      197.858      44.932      38.966
  C      198.928      44.672      38.211
  O      199.815      41.901      32.034
  O      197.765      43.185      32.960
  H      200.438      40.853      38.664
  H      197.433      42.270      33.137
  H      197.105      45.658      38.704
  H      199.091      45.192      37.272
  H      201.914      43.478      38.396
  H      199.922      41.867      36.692
  H      201.734      41.440      35.206
  H      202.913      44.039      35.634
  H      196.675      43.839      41.923
  H      201.260      44.921      34.042
  H      195.971      45.050      40.889
  H      201.863      43.329      33.498
  P      204.344      41.333      35.450
  C      205.159      39.194      36.666
  O      204.482      39.736      35.540
  O      205.721      41.875      36.059
  O      204.092      41.874      34.079
  H      205.984      42.700      35.612
  H      205.175      38.127      36.593
  H      204.650      39.483      37.562
  H      206.162      39.565      36.691

 6  7  8  9  10  11  12  13  14  15  16  26  30  31  32  33  35 0
 6-311+G(2d,p)
 ****
 37  38 0
 6-311+G(2d,p)
 ****
 1  2  3  4  5  17  18  19  20  21  22  23  24  25 0
 3-21G
 ****
 27  28  29  34  36  39  40  41  42  43  44  45  46 0
 3-21G
 ****


