%nproc=1
%NoSave
%Mem=1900MB
#P OB98/GEN NMR

erre ene a

0 1
  C     -109.267      82.232      70.059
  O     -110.050      83.370      69.696
  P     -110.389      84.396      70.885
  C     -112.457      84.875      72.373
  O     -111.799      83.956      71.516
  C     -113.560      84.183      73.180
  O     -114.610      83.685      72.297
  C     -113.061      82.986      74.005
  O     -113.834      82.967      75.213
  C     -113.427      81.811      73.112
  O     -113.412      80.566      73.790
  C     -114.784      82.285      72.604
  N     -115.794      77.640      70.756
  C     -115.316      78.053      71.950
  N     -115.070      79.313      72.365
  C     -115.378      80.195      71.399
  C     -115.870      79.926      70.132
  C     -116.082      78.573      69.817
  N     -116.548      78.140      68.597
  N     -116.038      81.101      69.413
  C     -115.583      82.044      70.217
  N     -115.253      81.556      71.449
  O     -110.720      85.760      70.118
  O     -109.282      84.552      71.873
  H     -113.475      79.835      73.142
  H     -109.948      86.355      70.132
  H     -115.099      77.265      72.666
  H     -115.472      83.087      69.958
  H     -115.563      82.208      73.373
  H     -112.707      81.746      72.288
  H     -112.000      83.039      74.259
  H     -114.020      84.927      73.844
  H     -112.898      85.685      71.787
  H     -116.662      77.148      68.464
  H     -116.762      78.803      67.867
  H     -111.716      85.340      73.032
  P     -113.070      83.070      76.620
  C     -111.719      81.358      77.970
  O     -112.741      81.548      77.011
  O     -114.300      83.384      77.599
  O     -111.957      84.058      76.698
  H     -115.032      82.759      77.456
  H     -111.653      80.292      78.203
  H     -111.951      81.908      78.885
  H     -110.760      81.691      77.564
  H     -109.103      81.622      69.196
  H     -109.786      81.665      70.803
  H     -108.325      82.557      70.450

 3  4  5  6  7  8  9  10  11  12  22  25  29  30  31  32 0
 6-311+G(2d,p)
 ****
 33  36  37 0
 6-311+G(2d,p)
 ****
 1  2  13  14  15  16  17  18  19  20  21  23  24  26 0
 3-21G
 ****
 27  28  34  35  38  39  40  41  42  43  44  45  46  47  48 0
 3-21G
 ****


