%nproc=1
%NoSave
%Mem=1900MB
#P OB98/GEN NMR

erre ene a

0 1
  C      420.574    -894.927     188.000
  O      420.773    -895.217     189.370
  H      421.260    -895.547     187.410
  H      420.791    -893.875     187.799
  H      419.551    -895.162     187.696
  P      419.763    -894.582     190.444
  C      418.666    -896.878     190.853
  O      419.339    -895.776     191.432
  C      418.264    -897.898     191.933
  O      419.482    -898.568     192.411
  C      417.576    -897.278     193.163
  O      416.690    -898.268     193.694
  C      418.775    -897.068     194.086
  O      418.393    -896.748     195.406
  C      419.510    -898.388     193.841
  N      420.883    -898.438     194.339
  C      421.080    -898.708     195.689
  O      420.164    -898.898     196.504
  N      422.378    -898.728     196.109
  C      423.484    -898.538     195.328
  O      424.631    -898.608     195.761
  C      423.219    -898.248     193.917
  C      421.955    -898.228     193.487
  O      418.636    -893.791     189.886
  O      420.718    -893.689     191.372
  H      420.623    -892.744     191.126
  H      419.134    -896.968     196.008
  H      422.541    -898.928     197.086
  H      424.068    -898.088     193.271
  H      421.721    -898.028     192.443
  H      418.950    -899.218     194.279
  H      419.364    -896.218     193.735
  H      417.021    -896.368     192.932
  H      417.641    -898.668     191.480
  H      419.340    -897.358     190.128
  H      417.773    -896.528     190.328
  P      415.243    -897.918     194.303
  C      413.782    -899.168     192.561
  O      414.233    -899.108     193.922
  O      414.741    -896.558     193.946
  O      415.420    -898.068     195.900
  H      414.756    -897.498     196.339
  H      413.120    -900.000     192.441
  H      414.624    -899.286     191.911
  H      413.266    -898.263     192.316

 6  7  8  9  10  11  12  13  14  15  16  27  31  32  33  34  35 0
 6-311+G(2d,p)
 ****
 36  37 0
 6-311+G(2d,p)
 ****
 1  2  3  4  5  17  18  19  20  21  22  23  24  25 0
 3-21G
 ****
 26  28  29  30  38  39  40  41  42  43  44  45 0
 3-21G
 ****


