%nproc=1
%NoSave
%Mem=1900MB
#P OB98/GEN NMR

erre ene a

0 1
  C      -82.588     463.910      36.257
  O      -83.712     464.385      36.964
  H      -82.922     463.175      35.522
  H      -81.898     463.424      36.952
  H      -82.073     464.720      35.734
  P      -83.594     465.766      37.761
  C      -85.111     464.979      39.697
  O      -84.911     465.938      38.664
  C      -86.441     465.192      40.416
  O      -86.362     466.373      41.242
  C      -87.607     465.410      39.445
  O      -88.226     464.218      38.991
  C      -88.569     466.240      40.289
  O      -89.447     465.402      41.057
  C      -87.636     467.032      41.214
  N      -89.519     471.787      41.270
  C      -90.122     470.610      41.676
  N      -91.394     470.720      42.115
  N      -89.530     469.445      41.633
  C      -88.298     469.482      41.080
  C      -87.605     470.582      40.623
  C      -88.239     471.879      40.742
  O      -87.742     472.950      40.412
  N      -86.392     470.226      40.086
  C      -86.391     468.909      40.138
  N      -87.490     468.417      40.806
  O      -83.811     466.874      36.621
  O      -82.293     465.991      38.473
  H      -88.906     464.911      41.705
  H      -83.301     467.675      36.842
  H      -90.014     472.656      41.352
  H      -85.605     468.267      39.754
  H      -88.014     467.043      42.245
  H      -89.204     466.864      39.655
  H      -91.927     471.574      42.086
  H      -87.290     466.016      38.591
  H      -91.934     469.861      42.242
  H      -86.630     464.343      41.086
  H      -84.283     465.100      40.397
  H      -85.052     463.965      39.290
  P      -88.195     463.811      37.448
  C      -90.454     462.512      37.773
  O      -89.148     462.548      37.239
  O      -86.728     463.198      37.265
  O      -88.460     464.920      36.486
  H      -86.122     463.861      36.879
  H      -90.918     461.582      37.519
  H      -91.027     463.319      37.368
  H      -90.407     462.608      38.838

 6  7  8  9  10  11  12  13  14  15  26  29  33  34 0
 6-311+G(2d,p)
 ****
 36  38  39  40  41 0
 6-311+G(2d,p)
 ****
 1  2  3  4  5  16  17  18  19  20  21  22  23  24  25 0
 3-21G
 ****
 27  28  30  31  32  35  37  42  43  44  45  46  47 0
 3-21G
 ****
 48  49 0
 3-21G
 ****


