%nproc=1
%NoSave
%Mem=1900MB
#P OB98/GEN NMR

erre ene a

0 1
  C      -13.839     -33.634     -53.891
  O      -14.374     -34.912     -53.592
  P      -13.931     -36.150     -54.506
  C      -16.102     -36.007     -55.923
  O      -14.682     -36.016     -55.919
  C      -16.644     -36.333     -57.316
  O      -16.151     -35.356     -58.270
  C      -16.229     -37.716     -57.828
  O      -17.283     -38.259     -58.637
  C      -15.062     -37.418     -58.745
  O      -14.875     -38.454     -59.709
  C      -15.497     -36.076     -59.334
  N      -13.338     -34.306     -63.547
  C      -14.610     -34.808     -63.358
  N      -15.377     -34.934     -64.462
  N      -15.089     -35.151     -62.191
  C      -14.206     -34.976     -61.177
  C      -12.925     -34.474     -61.238
  C      -12.405     -34.110     -62.537
  O      -11.279     -33.686     -62.776
  N      -12.351     -34.413     -59.995
  C      -13.261     -34.918     -59.186
  N      -14.389     -35.308     -59.862
  O      -14.664     -37.390     -53.807
  O      -12.459     -36.374     -54.582
  H      -15.683     -38.482     -60.255
  H      -14.015     -37.923     -53.313
  H      -13.012     -34.067     -64.468
  H      -13.146     -35.048     -58.118
  H      -16.228     -36.210     -60.141
  H      -14.139     -37.322     -58.163
  H      -15.045     -34.751     -65.397
  H      -15.970     -38.433     -57.040
  H      -16.297     -35.342     -64.357
  H      -17.736     -36.240     -57.297
  H      -16.452     -35.018     -55.627
  H      -16.475     -36.735     -55.195
  P      -17.514     -39.845     -58.520
  C      -16.380     -40.403     -60.795
  O      -16.350     -40.520     -59.387
  O      -18.831     -40.090     -59.392
  O      -17.655     -40.341     -57.120
  H      -19.292     -40.894     -59.088
  H      -15.501     -39.842     -61.123
  H      -17.280     -39.893     -61.150
  H      -16.347     -41.404     -61.234
  H      -14.225     -32.915     -53.199
  H      -14.116     -33.355     -54.886
  H      -12.772     -33.667     -53.813

 3  4  5  6  7  8  9  10  11  12  23  26  30  31 0
 6-311+G(2d,p)
 ****
 33  35  36  37  38 0
 6-311+G(2d,p)
 ****
 1  2  13  14  15  16  17  18  19  20  21  22  24  25 0
 3-21G
 ****
 27  28  29  32  34  39  40  41  42  43  44  45  46  47  48  49 0
 3-21G
 ****


