%nproc=1
%NoSave
%Mem=1900MB
#P OB98/GEN NMR

erre ene a

0 1
  C     -118.648    -112.995      42.712
  O     -119.512    -112.902      43.849
  P     -119.024    -111.961      45.051
  C     -119.545    -113.409      47.143
  O     -119.914    -112.295      46.341
  C     -120.694    -114.416      47.205
  O     -120.511    -115.495      46.263
  C     -120.836    -115.089      48.564
  O     -121.417    -114.208      49.511
  C     -121.702    -116.290      48.199
  O     -123.081    -115.900      48.085
  C     -121.155    -116.669      46.814
  N     -120.617    -121.716      47.464
  C     -121.703    -120.913      47.485
  N     -121.763    -119.578      47.305
  C     -120.540    -119.074      47.072
  C     -119.343    -119.767      47.016
  C     -119.407    -121.155      47.230
  N     -118.298    -121.969      47.223
  N     -118.294    -118.909      46.757
  C     -118.847    -117.715      46.681
  N     -120.204    -117.765      46.853
  O     -119.524    -110.507      44.609
  O     -117.547    -111.992      45.274
  H     -123.170    -115.384      47.257
  H     -118.763    -109.958      44.345
  H     -122.652    -121.410      47.672
  H     -118.310    -116.791      46.506
  H     -121.951    -116.960      46.119
  H     -121.650    -117.095      48.937
  H     -119.856    -115.428      48.922
  H     -121.624    -113.888      46.953
  H     -119.287    -113.081      48.152
  H     -118.422    -122.941      47.463
  H     -117.383    -121.550      47.137
  H     -118.644    -113.864      46.719
  P     -120.838    -114.233      51.006
  C     -123.000    -114.277      52.393
  O     -121.965    -113.470      51.862
  O     -119.670    -113.149      50.918
  O     -120.446    -115.580      51.508
  H     -119.959    -112.342      50.454
  H     -123.672    -113.642      52.976
  H     -122.581    -115.046      53.048
  H     -123.566    -114.742      51.583
  H     -119.084    -113.648      41.985
  H     -117.698    -113.383      43.016
  H     -118.516    -112.023      42.284

 3  4  5  6  7  8  9  10  11  12  22  25  29  30  31  32 0
 6-311+G(2d,p)
 ****
 33  36  37 0
 6-311+G(2d,p)
 ****
 1  2  13  14  15  16  17  18  19  20  21  23  24  26 0
 3-21G
 ****
 27  28  34  35  38  39  40  41  42  43  44  45  46  47  48 0
 3-21G
 ****


