%nproc=1
%NoSave
%Mem=1900MB
#P OB98/GEN NMR

erre ene a

0 1
  C      -58.238      -0.500      23.517
  O      -57.349      -0.221      24.578
  H      -58.245       0.350      22.829
  H      -59.247      -0.635      23.915
  H      -57.929      -1.395      22.971
  P      -56.876      -1.456      25.485
  C      -54.709      -1.884      24.123
  O      -55.275      -1.521      25.373
  C      -53.536      -2.844      24.326
  O      -53.192      -3.436      23.037
  C      -52.269      -2.177      24.888
  O      -51.623      -3.093      25.781
  C      -51.398      -2.022      23.656
  O      -50.015      -1.926      23.979
  C      -51.768      -3.285      22.886
  N      -47.935      -4.088      19.749
  C      -48.108      -4.458      21.067
  N      -47.078      -5.089      21.669
  N      -49.202      -4.225      21.744
  C      -50.162      -3.604      21.017
  C      -50.113      -3.182      19.712
  C      -48.890      -3.430      18.976
  O      -48.668      -3.107      17.815
  N      -51.272      -2.535      19.361
  C      -52.008      -2.549      20.459
  N      -51.376      -3.185      21.491
  O      -57.365      -2.721      24.633
  O      -57.421      -1.475      26.873
  H      -49.498      -2.169      23.184
  H      -58.238      -3.016      24.952
  H      -47.067      -4.276      19.278
  H      -52.985      -2.101      20.563
  H      -51.282      -4.182      23.290
  H      -51.688      -1.121      23.102
  H      -46.217      -5.331      21.205
  H      -52.456      -1.230      25.402
  H      -47.206      -5.402      22.624
  H      -53.863      -3.663      24.977
  H      -54.348      -0.983      23.616
  H      -55.479      -2.351      23.500
  P      -51.169      -2.550      27.219
  C      -53.043      -3.456      28.781
  O      -51.698      -3.568      28.341
  O      -52.097      -1.262      27.427
  O      -49.721      -2.201      27.305
  H      -51.607      -0.579      27.923
  H      -53.238      -4.200      29.524
  H      -53.703      -3.599      27.951
  H      -53.202      -2.484      29.199

 6  7  8  9  10  11  12  13  14  15  26  29  33  34 0
 6-311+G(2d,p)
 ****
 36  38  39  40  41 0
 6-311+G(2d,p)
 ****
 1  2  3  4  5  16  17  18  19  20  21  22  23  24  25 0
 3-21G
 ****
 27  28  30  31  32  35  37  42  43  44  45  46  47 0
 3-21G
 ****
 48  49 0
 3-21G
 ****


