%nproc=1
%NoSave
%Mem=1900MB
#P OB98/GEN NMR

erre ene a

0 1
  C      152.406      98.601    -187.409
  O      151.441      97.573    -187.523
  H      153.008      98.453    -186.508
  H      153.062      98.564    -188.280
  H      151.916      99.578    -187.375
  P      150.355      97.475    -186.347
  C      148.049      98.009    -187.407
  O      149.189      98.509    -186.727
  C      146.781      98.651    -186.853
  O      146.732      98.494    -185.419
  C      146.663     100.151    -187.104
  O      146.211     100.430    -188.420
  C      145.621     100.531    -186.065
  O      144.306     100.184    -186.544
  C      146.005      99.630    -184.881
  N      146.041     102.054    -180.377
  C      145.055     101.436    -181.060
  N      145.126     100.794    -182.245
  C      146.383     100.812    -182.716
  C      147.497     101.383    -182.126
  C      147.293     102.036    -180.899
  N      148.300     102.726    -180.242
  N      148.614     101.211    -182.919
  C      148.175     100.566    -183.979
  N      146.837     100.297    -183.900
  O      151.103      98.178    -185.114
  O      149.908      96.093    -186.007
  H      144.352      99.255    -186.835
  H      151.503      97.491    -184.550
  H      144.074     101.465    -180.596
  H      148.786     100.279    -184.825
  H      145.127      99.234    -184.362
  H      145.609     101.601    -185.838
  H      147.600     100.671    -186.879
  H      145.920      98.118    -187.275
  H      147.991      96.924    -187.275
  H      147.961     103.500    -179.679
  H      149.125     102.897    -180.803
  H      148.151      98.233    -188.474
  P      146.454     101.908    -188.996
  C      148.989     101.679    -189.451
  O      147.978     102.284    -188.657
  O      145.605     102.823    -187.993
  O      146.034     102.119    -190.408
  H      144.961     103.354    -188.499
  H      149.950     102.014    -189.121
  H      148.849     101.952    -190.476
  H      148.929     100.615    -189.354

 6  7  8  9  10  11  12  13  14  15  25  28  32  33  34  35 0
 6-311+G(2d,p)
 ****
 36  39  40 0
 6-311+G(2d,p)
 ****
 1  2  3  4  5  16  17  18  19  20  21  22  23  24 0
 3-21G
 ****
 26  27  29  30  31  37  38  41  42  43  44  45  46  47  48 0
 3-21G
 ****


