%nproc=1
%NoSave
%Mem=1900MB
#P OB98/GEN NMR

erre ene a

0 1
  C       -7.061    -897.600     397.028
  O       -5.982    -896.850     397.523
  H       -6.972    -897.730     395.941
  H       -7.050    -898.590     397.502
  H       -8.009    -897.110     397.262
  P       -5.795    -895.360     396.922
  C       -6.755    -893.750     398.705
  O       -5.588    -894.360     398.166
  C       -6.562    -893.510     400.202
  O       -6.774    -894.760     400.909
  C       -5.180    -892.960     400.606
  O       -5.310    -891.720     401.299
  C       -4.620    -893.990     401.580
  O       -3.938    -893.420     402.684
  C       -5.867    -894.760     402.018
  N       -6.115    -898.100     405.880
  C       -6.843    -896.980     405.608
  N       -6.802    -896.200     404.508
  C       -5.911    -896.680     403.615
  C       -5.123    -897.810     403.737
  C       -5.226    -898.530     404.945
  N       -4.460    -899.630     405.231
  N       -4.339    -897.980     402.600
  C       -4.604    -896.940     401.846
  N       -5.536    -896.110     402.418
  O       -7.265    -895.010     396.374
  O       -4.766    -895.250     395.843
  H       -3.670    -894.160     403.270
  H       -7.196    -894.640     395.479
  H       -7.527    -896.680     406.379
  H       -4.140    -896.710     400.898
  H       -6.381    -894.270     402.859
  H       -3.930    -894.650     401.033
  H       -4.518    -892.840     399.736
  H       -7.350    -892.820     400.546
  H       -7.624    -894.410     398.554
  H       -4.523    -900.000     406.159
  H       -3.730    -899.900     404.580
  H       -6.931    -892.800     398.184
  P       -4.229    -890.560     400.947
  C       -5.605    -888.860     399.560
  O       -5.021    -889.190     400.810
  O       -3.817    -890.920     399.436
  O       -3.045    -890.560     401.870
  H       -2.905    -890.600     399.258
  H       -6.097    -887.913     399.635
  H       -6.317    -889.612     399.289
  H       -4.841    -888.806     398.813

 6  7  8  9  10  11  12  13  14  15  25  28  32  33  34  35 0
 6-311+G(2d,p)
 ****
 36  39  40 0
 6-311+G(2d,p)
 ****
 1  2  3  4  5  16  17  18  19  20  21  22  23  24 0
 3-21G
 ****
 26  27  29  30  31  37  38  41  42  43  44  45  46  47  48 0
 3-21G
 ****


