%nproc=1
%NoSave
%Mem=1900MB
#P OB98/GEN NMR

erre ene a

0 1
  C      269.990    -292.051     307.179
  O      269.433    -293.316     307.573
  P      270.414    -294.573     307.778
  C      271.124    -296.699     306.446
  O      270.552    -295.401     306.413
  C      272.333    -296.803     305.504
  O      271.920    -296.544     304.129
  C      273.471    -295.819     305.821
  O      274.698    -296.469     305.469
  C      273.192    -294.672     304.861
  O      274.320    -293.845     304.634
  C      272.730    -295.460     303.633
  N      271.984    -294.661     302.652
  C      272.711    -293.858     301.779
  O      273.931    -293.727     301.808
  N      271.970    -293.166     300.857
  C      270.609    -293.163     300.750
  O      270.005    -292.497     299.920
  C      269.896    -294.006     301.718
  C      270.604    -294.704     302.608
  O      269.518    -295.551     308.679
  O      271.704    -294.271     308.474
  H      274.994    -294.389     304.185
  H      270.053    -295.904     309.415
  H      272.479    -292.588     300.205
  H      268.814    -294.034     301.665
  H      270.098    -295.344     303.326
  H      273.598    -295.913     303.137
  H      272.391    -294.046     305.271
  H      273.492    -295.509     306.871
  H      272.703    -297.832     305.533
  H      270.374    -297.431     306.141
  H      271.428    -296.929     307.474
  P      275.470    -297.310     306.605
  C      277.377    -296.758     308.308
  O      276.647    -296.380     307.163
  O      276.244    -298.376     305.694
  O      274.579    -297.937     307.621
  H      276.669    -297.972     304.919
  H      277.599    -297.829     308.309
  H      276.809    -296.503     309.206
  H      278.323    -296.208     308.324
  H      269.206    -291.329     307.088
  H      270.487    -292.158     306.238
  H      270.692    -291.725     307.918

 3  4  5  6  7  8  9  10  11  12  13  23  28  29  30  31  32 0
 6-311+G(2d,p)
 ****
 33  34 0
 6-311+G(2d,p)
 ****
 1  2  14  15  16  17  18  19  20  21  22  24  25  26 0
 3-21G
 ****
 27  35  36  37  38  39  40  41  42  43  44  45 0
 3-21G
 ****


