%nproc=1
%NoSave
%Mem=1900MB
#P OB98/GEN NMR

erre ene a

0 1
  C      723.736    -679.856    -311.344
  O      725.024    -679.264    -311.310
  H      723.241    -679.659    -310.387
  H      723.817    -680.934    -311.482
  H      723.143    -679.414    -312.149
  P      725.939    -679.473    -312.611
  C      725.503    -678.644    -315.014
  O      725.457    -678.328    -313.628
  C      725.047    -677.452    -315.850
  O      723.640    -677.210    -315.612
  C      725.807    -676.157    -315.514
  O      726.036    -675.415    -316.711
  C      724.827    -675.393    -314.631
  O      725.048    -673.992    -314.667
  C      723.487    -675.842    -315.207
  N      719.437    -673.059    -313.787
  C      720.239    -673.017    -314.881
  N      721.272    -673.810    -315.190
  C      721.462    -674.751    -314.249
  C      720.734    -674.921    -313.075
  C      719.678    -674.007    -312.856
  N      718.887    -674.030    -311.724
  N      721.245    -675.981    -312.347
  C      722.240    -676.444    -313.063
  N      722.416    -675.733    -314.220
  O      725.969    -680.857    -313.170
  O      727.359    -678.914    -312.105
  H      724.372    -673.546    -314.106
  H      727.247    -678.086    -311.610
  H      719.993    -672.241    -315.605
  H      722.872    -677.278    -312.792
  H      723.182    -675.242    -316.070
  H      724.935    -675.728    -313.593
  H      726.753    -676.345    -315.002
  H      725.157    -677.695    -316.913
  H      724.840    -679.493    -315.225
  H      718.143    -673.359    -311.645
  H      719.028    -674.755    -311.026
  H      726.525    -678.932    -315.264
  P      727.223    -675.893    -317.691
  C      727.536    -678.268    -318.647
  O      726.687    -677.125    -318.565
  O      728.552    -676.091    -317.057
  O      727.264    -674.713    -318.763
  H      728.194    -674.547    -319.016
  H      727.070    -679.016    -319.254
  H      727.704    -678.659    -317.665
  H      728.472    -677.987    -319.084

 6  7  8  9  10  11  12  13  14  15  25  28  32  33  34  35 0
 6-311+G(2d,p)
 ****
 36  39  40 0
 6-311+G(2d,p)
 ****
 1  2  3  4  5  16  17  18  19  20  21  22  23  24 0
 3-21G
 ****
 26  27  29  30  31  37  38  41  42  43  44  45  46  47 0
 3-21G
 ****
 48 0
 3-21G
 ****


