%nproc=1
%NoSave
%Mem=1900MB
#P OB98/GEN NMR

erre ene a

0 1
  C     -181.959    -456.404     521.576
  O     -183.090    -455.618     521.172
  P     -183.524    -454.258     521.899
  C     -183.126    -452.780     519.806
  O     -182.780    -453.035     521.163
  C     -182.178    -451.751     519.186
  O     -180.897    -452.356     518.901
  C     -182.629    -451.177     517.850
  O     -183.695    -450.262     517.985
  C     -181.325    -450.558     517.338
  O     -181.130    -449.243     517.875
  C     -180.264    -451.520     517.901
  N     -179.620    -452.325     516.877
  C     -178.380    -451.870     516.411
  O     -177.919    -450.800     516.805
  N     -177.704    -452.642     515.495
  C     -178.263    -453.713     515.018
  N     -177.534    -454.439     514.125
  C     -179.621    -454.143     515.376
  C     -180.236    -453.415     516.306
  O     -183.328    -454.264     523.380
  O     -185.064    -454.044     521.519
  H     -185.502    -453.513     522.215
  H     -181.808    -448.667     517.480
  H     -180.064    -455.016     514.916
  H     -181.237    -453.672     516.644
  H     -179.494    -450.952     518.449
  H     -181.312    -450.471     516.248
  H     -182.923    -452.001     517.186
  H     -182.030    -450.942     519.918
  H     -176.606    -454.119     513.899
  H     -184.148    -452.384     519.780
  H     -177.867    -455.297     513.703
  H     -183.109    -453.722     519.246
  P     -185.145    -450.873     518.299
  C     -185.008    -450.375     520.847
  O     -185.150    -451.356     519.830
  O     -185.164    -452.247     517.473
  O     -186.291    -449.996     517.915
  H     -186.051    -452.382     517.084
  H     -185.503    -450.743     521.747
  H     -185.465    -449.426     520.557
  H     -183.951    -450.221     521.057
  H     -181.875    -457.261     520.941
  H     -182.090    -456.723     522.589
  H     -181.069    -455.815     521.499

 3  4  5  6  7  8  9  10  11  12  13  24  27  28  29  30  32 0
 6-311+G(2d,p)
 ****
 34  35 0
 6-311+G(2d,p)
 ****
 1  2  14  15  16  17  18  19  20  21  22  23  25  26 0
 3-21G
 ****
 31  33  36  37  38  39  40  41  42  43  44  45  46 0
 3-21G
 ****


