%nproc=1
%NoSave
%Mem=1900MB
#P OB98/GEN NMR

erre ene a

0 1
  C       32.296     -62.168     -95.195
  O       32.428     -60.768     -95.311
  H       31.237     -62.409     -95.073
  H       32.840     -62.516     -94.313
  H       32.672     -62.680     -96.084
  P       33.777     -60.171     -95.930
  C       34.229     -58.840     -93.766
  O       34.742     -59.773     -94.709
  C       35.257     -57.765     -93.411
  O       36.357     -58.349     -92.678
  C       35.872     -57.117     -94.651
  O       35.122     -56.059     -95.218
  C       37.206     -56.612     -94.108
  O       37.056     -55.318     -93.501
  C       37.563     -57.662     -93.053
  N       42.513     -58.821     -93.561
  C       41.936     -57.663     -93.074
  N       42.786     -56.669     -92.736
  N       40.646     -57.497     -92.953
  C       39.918     -58.539     -93.420
  C       40.376     -59.730     -93.937
  C       41.809     -59.926     -94.017
  O       42.371     -60.929     -94.447
  N       39.337     -60.552     -94.306
  C       38.259     -59.829     -94.082
  N       38.558     -58.610     -93.520
  O       33.329     -58.739     -96.498
  O       34.411     -61.001     -97.005
  H       37.942     -54.939     -93.361
  H       33.916     -58.474     -97.229
  H       43.513     -58.903     -93.607
  H       37.242     -60.148     -94.282
  H       37.963     -57.197     -92.144
  H       37.951     -56.503     -94.903
  H       43.777     -56.708     -92.921
  H       36.077     -57.874     -95.415
  H       42.403     -55.728     -92.631
  H       34.789     -57.021     -92.755
  H       33.962     -59.411     -92.874
  H       33.312     -58.382     -94.146
  P       35.205     -55.769     -96.790
  C       37.489     -54.564     -96.461
  O       36.753     -55.555     -97.145
  O       34.579     -54.301     -96.914
  O       34.489     -56.753     -97.650
  H       33.637     -54.357     -97.157
  H       38.497     -54.557     -96.819
  H       37.485     -54.777     -95.412
  H       37.043     -53.607     -96.633

 6  7  8  9  10  11  12  13  14  15  26  29  33  34 0
 6-311+G(2d,p)
 ****
 36  38  39  40  41 0
 6-311+G(2d,p)
 ****
 1  2  3  4  5  16  17  18  19  20  21  22  23  24  25 0
 3-21G
 ****
 27  28  30  31  32  35  37  42  43  44  45  46  47 0
 3-21G
 ****
 48  49 0
 3-21G
 ****


