%nproc=1
%NoSave
%Mem=1900MB
#P OB98/GEN NMR

erre ene a

0 1
  C     -113.608      59.565    -136.170
  O     -113.097      58.249    -136.090
  H     -114.080      59.701    -137.147
  H     -112.799      60.293    -136.066
  H     -114.355      59.727    -135.389
  P     -112.268      57.886    -134.762
  C     -114.242      56.729    -133.508
  O     -113.393      57.861    -133.615
  C     -114.199      56.186    -132.083
  O     -114.718      57.160    -131.151
  C     -115.039      54.932    -131.869
  O     -114.406      53.755    -132.344
  C     -115.158      54.938    -130.356
  O     -113.921      54.490    -129.773
  C     -115.389      56.441    -130.081
  N     -116.806      56.805    -130.029
  C     -117.489      56.503    -128.845
  O     -116.910      55.949    -127.911
  N     -118.827      56.805    -128.756
  C     -119.430      57.369    -129.756
  N     -120.757      57.634    -129.620
  C     -118.745      57.720    -131.015
  C     -117.453      57.413    -131.082
  O     -111.469      59.234    -134.436
  O     -111.414      56.666    -134.836
  H     -114.058      54.460    -128.808
  H     -111.021      59.154    -133.559
  H     -119.293      58.180    -131.825
  H     -116.885      57.639    -131.978
  H     -114.917      56.744    -129.139
  H     -115.946      54.280    -129.985
  H     -116.040      55.038    -132.300
  H     -113.147      56.010    -131.820
  H     -121.212      57.326    -128.771
  H     -113.894      55.967    -134.214
  H     -121.343      57.901    -130.401
  H     -115.270      57.006    -133.760
  P     -115.343      52.593    -132.938
  C     -114.512      52.790    -135.391
  O     -115.596      52.938    -134.485
  O     -116.759      52.890    -132.259
  O     -114.870      51.199    -132.663
  H     -117.214      52.062    -132.015
  H     -114.832      53.055    -136.377
  H     -114.179      51.773    -135.386
  H     -113.708      53.430    -135.093

 6  7  8  9  10  11  12  13  14  15  16  26  30  31  32  33  35 0
 6-311+G(2d,p)
 ****
 37  38 0
 6-311+G(2d,p)
 ****
 1  2  3  4  5  17  18  19  20  21  22  23  24  25 0
 3-21G
 ****
 27  28  29  34  36  39  40  41  42  43  44  45  46 0
 3-21G
 ****


