%nproc=1
%NoSave
%Mem=1900MB
#P OB98/GEN NMR

erre ene a

0 1
  C      -16.554     232.692     -38.805
  O      -16.624     231.357     -39.250
  P      -15.538     230.245     -38.892
  C      -17.181     229.264     -37.111
  O      -15.857     229.675     -37.428
  C      -17.280     228.812     -35.646
  O      -18.661     228.472     -35.361
  C      -16.445     227.547     -35.388
  O      -15.731     227.564     -34.158
  C      -17.455     226.427     -35.592
  O      -17.073     225.200     -34.988
  C      -18.736     227.062     -35.063
  N      -21.646     222.954     -35.741
  C      -20.567     223.124     -34.897
  N      -20.099     222.007     -34.300
  N      -19.984     224.277     -34.693
  C      -20.492     225.280     -35.446
  C      -21.558     225.232     -36.314
  C      -22.212     223.960     -36.506
  O      -23.100     223.738     -37.329
  N      -21.746     226.427     -36.956
  C      -20.774     227.193     -36.504
  N      -19.965     226.529     -35.610
  O      -14.119     230.562     -39.229
  O      -16.004     229.021     -39.837
  H      -16.713     225.407     -34.105
  H      -15.194     228.548     -40.114
  H      -22.002     222.022     -35.917
  H      -20.590     228.215     -36.809
  H      -18.817     226.954     -33.979
  H      -17.527     226.241     -36.669
  H      -20.432     221.086     -34.551
  H      -15.653     227.452     -36.138
  H      -19.173     222.061     -33.884
  H      -16.998     229.643     -34.992
  H      -17.412     228.428     -37.779
  H      -17.892     230.066     -37.317
  P      -14.309     226.925     -33.818
  C      -13.179     229.227     -33.902
  O      -13.164     227.895     -34.380
  O      -14.189     225.648     -34.771
  O      -14.131     226.525     -32.390
  H      -13.766     224.915     -34.283
  H      -12.546     229.838     -34.551
  H      -12.779     229.256     -32.886
  H      -14.195     229.632     -33.910
  H      -17.396     233.237     -39.178
  H      -15.651     233.141     -39.164
  H      -16.561     232.712     -37.735

 3  4  5  6  7  8  9  10  11  12  23  26  30  31 0
 6-311+G(2d,p)
 ****
 33  35  36  37  38 0
 6-311+G(2d,p)
 ****
 1  2  13  14  15  16  17  18  19  20  21  22  24  25 0
 3-21G
 ****
 27  28  29  32  34  39  40  41  42  43  44  45  46  47  48  49 0
 3-21G
 ****


