%nproc=1
%NoSave
%Mem=1900MB
#P OB98/GEN NMR

erre ene a

0 1
  C     -204.871     -25.535     141.674
  O     -205.797     -24.465     141.663
  H     -205.372     -26.432     142.051
  H     -204.026     -25.314     142.332
  H     -204.508     -25.730     140.662
  P     -205.262     -23.000     141.302
  C     -206.451     -22.174     143.450
  O     -205.248     -22.194     142.690
  C     -206.136     -22.316     144.937
  O     -205.549     -23.608     145.205
  C     -205.124     -21.291     145.441
  O     -205.727     -20.025     145.593
  C     -204.650     -21.957     146.716
  O     -205.582     -21.752     147.784
  C     -204.614     -23.446     146.291
  N     -203.279     -23.889     145.905
  C     -202.607     -24.700     146.829
  O     -203.148     -25.006     147.895
  N     -201.333     -25.117     146.524
  C     -200.784     -24.775     145.403
  N     -199.527     -25.223     145.166
  C     -201.464     -23.940     144.394
  C     -202.691     -23.530     144.711
  O     -205.948     -22.287     140.182
  O     -203.704     -23.230     141.003
  H     -205.508     -20.809     148.026
  H     -203.564     -23.432     140.059
  H     -200.971     -23.682     143.469
  H     -203.261     -22.907     144.026
  H     -204.966     -24.085     147.111
  H     -203.688     -21.564     147.035
  H     -204.274     -21.236     144.746
  H     -207.076     -22.246     145.500
  H     -199.094     -25.793     145.889
  H     -207.066     -23.020     143.112
  H     -199.035     -25.098     144.292
  H     -207.010     -21.249     143.271
  P     -205.236     -18.772     144.712
  C     -204.459     -17.422     146.769
  O     -204.063     -18.083     145.567
  O     -206.324     -17.857     144.252
  O     -204.440     -19.467     143.506
  H     -205.056     -19.886     142.859
  H     -203.597     -17.006     147.248
  H     -204.926     -18.126     147.426
  H     -205.150     -16.639     146.535

 6  7  8  9  10  11  12  13  14  15  16  26  30  31  32  33  35 0
 6-311+G(2d,p)
 ****
 37  38 0
 6-311+G(2d,p)
 ****
 1  2  3  4  5  17  18  19  20  21  22  23  24  25 0
 3-21G
 ****
 27  28  29  34  36  39  40  41  42  43  44  45  46 0
 3-21G
 ****


