%nproc=1
%NoSave
%Mem=1900MB
#P OB98/GEN NMR

erre ene a

0 1
  C      131.078      35.224      -6.437
  O      132.473      35.398      -6.545
  P      133.218      36.552      -5.717
  C      133.747      37.587      -8.014
  O      133.287      37.828      -6.689
  C      132.849      38.301      -9.019
  O      131.472      37.860      -8.895
  C      132.776      39.809      -8.828
  O      133.955      40.549      -9.062
  C      131.561      40.157      -9.669
  O      131.892      40.246     -11.054
  C      130.645      38.933      -9.410
  N      129.546      39.256      -8.502
  C      128.312      39.484      -9.097
  O      128.119      39.425     -10.311
  N      127.290      39.817      -8.248
  C      127.395      39.988      -6.898
  O      126.448      40.333      -6.202
  C      128.729      39.750      -6.329
  C      129.729      39.401      -7.140
  O      134.525      36.159      -5.115
  O      132.118      37.002      -4.643
  H      132.369      41.089     -11.189
  H      131.289      37.341      -5.028
  H      126.389      39.999      -8.659
  H      128.842      39.864      -5.257
  H      130.722      39.222      -6.743
  H      130.214      38.574     -10.353
  H      131.127      41.120      -9.379
  H      132.508      40.007      -7.781
  H      133.181      38.036     -10.027
  H      133.716      36.511      -8.209
  H      134.787      37.914      -8.105
  P      134.771      41.295      -7.903
  C      134.869      43.455      -9.331
  O      134.569      42.875      -8.080
  O      136.154      40.804      -7.634
  O      133.852      40.992      -6.619
  H      134.421      40.937      -5.827
  H      134.718      44.537      -9.260
  H      134.203      43.062     -10.105
  H      135.910      43.267      -9.603
  H      130.771      34.410      -7.060
  H      130.582      36.119      -6.749
  H      130.823      35.010      -5.420

 3  4  5  6  7  8  9  10  11  12  13  23  28  29  30  31  32 0
 6-311+G(2d,p)
 ****
 33  34 0
 6-311+G(2d,p)
 ****
 1  2  14  15  16  17  18  19  20  21  22  24  25  26  27 0
 3-21G
 ****
 35  36  37  38  39  40  41  42  43  44  45 0
 3-21G
 ****


