%nproc=1
%NoSave
%Mem=1900MB
#P OB98/GEN NMR

erre ene a

0 1
  C      136.053      74.001    -122.877
  O      136.944      74.143    -121.787
  P      136.844      73.204    -120.494
  C      135.076      72.794    -118.669
  O      135.362      73.422    -119.909
  C      133.667      73.135    -118.180
  O      132.685      72.563    -119.090
  C      133.337      72.633    -116.769
  O      132.460      73.604    -116.187
  C      132.585      71.340    -117.048
  O      131.804      70.907    -115.944
  C      131.797      71.734    -118.309
  N      131.337      70.566    -119.050
  C      129.954      70.353    -119.094
  O      129.194      71.089    -118.455
  N      129.465      69.287    -119.805
  C      130.298      68.444    -120.342
  N      129.761      67.406    -121.040
  C      131.763      68.560    -120.214
  C      132.208      69.641    -119.573
  O      137.943      73.376    -119.498
  O      136.760      71.727    -121.102
  H      131.355      70.069    -116.191
  H      137.657      71.423    -121.395
  H      132.414      67.805    -120.628
  H      133.267      69.814    -119.432
  H      130.922      72.348    -118.041
  H      133.300      70.543    -117.283
  H      134.217      72.479    -116.141
  H      133.550      74.228    -118.224
  H      128.751      67.377    -121.116
  H      135.797      73.155    -117.931
  H      130.317      66.743    -121.559
  H      135.202      71.712    -118.759
  P      132.784      74.275    -114.769
  C      132.227      73.385    -112.429
  O      132.811      73.093    -113.686
  O      131.917      75.439    -114.402
  O      134.325      74.706    -114.872
  H      134.536      75.341    -114.160
  H      132.048      72.448    -111.891
  H      131.275      73.911    -112.553
  H      132.913      74.009    -111.846
  H      136.293      74.722    -123.630
  H      135.050      74.158    -122.540
  H      136.143      73.016    -123.285

 3  4  5  6  7  8  9  10  11  12  13  23  27  28  29  30  32 0
 6-311+G(2d,p)
 ****
 34  35 0
 6-311+G(2d,p)
 ****
 1  2  14  15  16  17  18  19  20  21  22  24  25  26 0
 3-21G
 ****
 31  33  36  37  38  39  40  41  42  43  44  45  46 0
 3-21G
 ****


