%nproc=1
%NoSave
%Mem=1900MB
#P OB98/GEN NMR

erre ene a

0 1
  C      -63.381     -40.128     195.882
  O      -63.774     -39.689     197.168
  H      -62.485     -40.747     195.984
  H      -63.147     -39.267     195.249
  H      -64.174     -40.720     195.422
  P      -65.180     -38.911     197.269
  C      -64.387     -36.488     196.639
  O      -65.058     -37.673     196.252
  C      -65.138     -35.253     196.131
  O      -65.002     -35.188     194.686
  C      -66.634     -35.263     196.459
  O      -67.043     -33.924     196.756
  C      -67.280     -35.729     195.164
  O      -68.641     -35.306     195.066
  C      -66.327     -35.143     194.113
  N      -66.383     -35.866     192.843
  C      -67.257     -35.361     191.868
  O      -67.950     -34.372     192.110
  N      -67.362     -36.018     190.668
  C      -66.701     -37.126     190.479
  N      -66.867     -37.739     189.273
  C      -65.808     -37.720     191.494
  C      -65.690     -37.039     192.635
  O      -65.073     -38.232     198.714
  O      -66.376     -39.784     197.080
  H      -69.188     -35.927     195.602
  H      -64.193     -37.861     198.908
  H      -65.292     -38.650     191.292
  H      -65.046     -37.402     193.434
  H      -66.567     -34.088     193.918
  H      -67.266     -36.826     195.113
  H      -66.891     -35.916     197.293
  H      -64.648     -34.358     196.534
  H      -67.501     -37.310     188.610
  H      -63.365     -36.484     196.241
  H      -66.444     -38.626     189.037
  H      -64.329     -36.471     197.733
  P      -67.522     -33.562     198.240
  C      -69.941     -34.469     198.369
  O      -68.579     -34.670     198.732
  O      -67.954     -32.146     198.457
  O      -66.229     -33.908     199.128
  H      -66.157     -33.224     199.831
  H      -70.535     -35.271     198.755
  H      -70.026     -34.444     197.303
  H      -70.286     -33.542     198.776

 6  7  8  9  10  11  12  13  14  15  16  26  30  31  32  33  35 0
 6-311+G(2d,p)
 ****
 37  38 0
 6-311+G(2d,p)
 ****
 1  2  3  4  5  17  18  19  20  21  22  23  24  25 0
 3-21G
 ****
 27  28  29  34  36  39  40  41  42  43  44  45  46 0
 3-21G
 ****


