%nproc=1
%NoSave
%Mem=1900MB
#P OB98/GEN NMR

erre ene a

0 1
  C        0.438     -51.581     634.924
  O        0.350     -52.375     636.093
  H        1.488     -51.507     634.630
  H        0.057     -50.574     635.119
  H       -0.125     -52.046     634.112
  P       -1.116     -52.575     636.716
  C       -3.235     -51.110     636.461
  O       -1.818     -51.140     636.558
  C       -3.831     -50.337     637.635
  O       -3.370     -48.977     637.621
  C       -5.355     -50.272     637.631
  O       -5.905     -51.446     638.202
  C       -5.594     -49.059     638.519
  O       -5.494     -49.446     639.904
  C       -4.423     -48.132     638.147
  N       -6.843     -43.686     637.292
  C       -6.884     -44.542     638.338
  N       -6.257     -45.731     638.474
  C       -5.518     -46.006     637.391
  C       -5.381     -45.229     636.245
  C       -6.084     -44.010     636.223
  N       -6.043     -43.140     635.154
  N       -4.545     -45.835     635.337
  C       -4.133     -46.930     635.944
  N       -4.724     -47.099     637.174
  O       -1.164     -53.188     638.074
  O       -1.822     -53.432     635.558
  H       -5.645     -48.639     640.433
  H       -1.565     -53.098     634.682
  H       -7.501     -44.231     639.175
  H       -3.397     -47.623     635.546
  H       -4.017     -47.615     639.028
  H       -6.584     -48.625     638.381
  H       -5.752     -50.068     636.630
  H       -3.468     -50.796     638.561
  H       -3.634     -52.132     636.447
  H       -6.720     -42.396     635.143
  H       -5.581     -43.453     634.311
  H       -3.494     -50.626     635.515
  P       -7.451     -51.822     637.995
  C       -9.563     -50.359     637.917
  O       -8.258     -50.518     638.462
  O       -7.865     -53.106     638.631
  O       -7.649     -51.822     636.411
  H       -8.474     -52.294     636.177
  H      -10.001     -49.460     638.298
  H      -10.169     -51.196     638.193
  H       -9.499     -50.301     636.850

 6  7  8  9  10  11  12  13  14  15  25  28  32  33  34  35 0
 6-311+G(2d,p)
 ****
 36  39  40 0
 6-311+G(2d,p)
 ****
 1  2  3  4  5  16  17  18  19  20  21  22  23  24 0
 3-21G
 ****
 26  27  29  30  31  37  38  41  42  43  44  45  46  47 0
 3-21G
 ****
 48 0
 3-21G
 ****


