%nproc=1
%NoSave
%Mem=1900MB
#P OB98/GEN NMR

erre ene a

0 1
  C     -230.115    -248.970      45.965
  O     -228.962    -248.280      45.539
  H     -229.820    -249.719      46.706
  H     -230.572    -249.480      45.114
  H     -230.842    -248.293      46.422
  P     -229.136    -246.859      44.826
  C     -227.973    -247.492      42.608
  O     -229.187    -247.100      43.238
  C     -228.228    -248.186      41.270
  O     -228.772    -249.503      41.502
  C     -229.242    -247.434      40.402
  O     -228.682    -246.419      39.588
  C     -229.824    -248.561      39.553
  O     -229.051    -248.768      38.358
  C     -229.731    -249.783      40.473
  N     -233.982    -252.606      40.150
  C     -232.992    -252.421      39.204
  N     -233.184    -253.035      38.017
  N     -231.929    -251.686      39.410
  C     -231.926    -251.056      40.605
  C     -232.860    -251.146      41.615
  C     -233.995    -252.020      41.408
  O     -234.889    -252.232      42.222
  N     -232.541    -250.328      42.672
  C     -231.469    -249.683      42.264
  N     -231.013    -250.145      41.053
  O     -227.702    -246.165      45.020
  O     -230.224    -245.988      45.377
  H     -228.120    -248.900      38.621
  H     -227.814    -245.199      45.089
  H     -234.762    -253.205      39.947
  H     -230.956    -248.907      42.822
  H     -229.366    -250.664      39.927
  H     -230.842    -248.320      39.231
  H     -234.022    -253.540      37.776
  H     -230.046    -247.020      41.018
  H     -232.582    -252.773      37.235
  H     -227.272    -248.321      40.746
  H     -227.475    -248.178      43.296
  H     -227.317    -246.628      42.474
  P     -229.613    -245.365      38.832
  C     -229.037    -245.946      36.336
  O     -229.972    -245.951      37.392
  O     -228.607    -244.165      38.502
  O     -230.808    -244.899      39.597
  H     -228.700    -243.449      39.157
  H     -229.480    -246.382      35.465
  H     -228.175    -246.513      36.620
  H     -228.746    -244.939      36.122

 6  7  8  9  10  11  12  13  14  15  26  29  33  34 0
 6-311+G(2d,p)
 ****
 36  38  39  40  41 0
 6-311+G(2d,p)
 ****
 1  2  3  4  5  16  17  18  19  20  21  22  23  24  25 0
 3-21G
 ****
 27  28  30  31  32  35  37  42  43  44  45  46  47 0
 3-21G
 ****
 48  49 0
 3-21G
 ****


