%nproc=1
%NoSave
%Mem=1900MB
#P OB98/GEN NMR

erre ene a

0 1
  C        5.134     453.517     418.250
  O        6.273     453.280     419.055
  H        4.428     454.156     418.789
  H        5.449     454.039     417.339
  H        4.652     452.577     417.977
  P        6.101     452.274     420.297
  C        5.520     454.169     421.978
  O        5.083     452.987     421.325
  C        4.813     454.322     423.329
  O        3.382     454.299     423.106
  C        5.160     453.220     424.348
  O        5.262     453.817     425.650
  C        3.936     452.319     424.310
  O        3.761     451.587     425.526
  C        2.836     453.325     424.036
  N       -2.119     452.496     424.805
  C       -1.265     453.389     425.345
  N        0.032     453.578     425.041
  C        0.413     452.779     424.015
  C       -0.355     451.823     423.361
  C       -1.678     451.679     423.808
  N       -2.540     450.739     423.310
  N        0.416     451.167     422.414
  C        1.611     451.698     422.505
  N        1.660     452.678     423.474
  O        7.519     452.395     421.034
  O        5.772     450.863     419.940
  H        3.530     452.227     426.236
  H        8.141     451.755     420.649
  H       -1.665     454.018     426.134
  H        2.480     451.401     421.950
  H        2.504     453.868     424.937
  H        4.030     451.604     423.482
  H        6.085     452.674     424.116
  H        5.061     455.314     423.731
  H        5.275     455.039     421.344
  H       -3.443     450.630     423.765
  H       -2.195     450.053     422.653
  H        6.608     454.132     422.112
  P        6.734     454.174     426.183
  C        6.959     452.434     428.108
  O        7.382     452.848     426.824
  O        6.434     455.093     427.462
  O        7.587     454.880     425.177
  H        7.143     455.763     427.565
  H        7.482     451.543     428.386
  H        5.907     452.239     428.091
  H        7.167     453.206     428.818

 6  7  8  9  10  11  12  13  14  15  25  28  32  33  34  35 0
 6-311+G(2d,p)
 ****
 36  39  40 0
 6-311+G(2d,p)
 ****
 1  2  3  4  5  16  17  18  19  20  21  22  23  24 0
 3-21G
 ****
 26  27  29  30  31  37  38  41  42  43  44  45  46  47 0
 3-21G
 ****
 48 0
 3-21G
 ****


