%nproc=1
%NoSave
%Mem=1900MB
#P OB98/GEN NMR

erre ene a

0 1
  C     -187.175    -928.062      68.869
  O     -186.170    -927.343      68.158
  P     -184.731    -927.185      68.892
  C     -184.051    -929.618      68.284
  O     -183.728    -928.238      68.219
  C     -183.578    -930.330      67.000
  O     -184.448    -930.037      65.886
  C     -182.204    -929.929      66.549
  O     -181.173    -930.589      67.279
  C     -182.206    -930.409      65.096
  O     -181.896    -931.822      65.061
  C     -183.659    -930.165      64.674
  N     -184.254    -928.300      59.996
  C     -184.103    -929.606      60.412
  N     -184.142    -930.566      59.452
  N     -183.927    -929.952      61.674
  C     -183.939    -928.899      62.517
  C     -184.076    -927.564      62.230
  C     -184.232    -927.184      60.835
  O     -184.346    -926.038      60.406
  N     -184.048    -926.793      63.362
  C     -183.916    -927.658      64.342
  N     -183.836    -928.961      63.878
  O     -185.005    -927.805      70.347
  O     -184.257    -925.768      68.960
  H     -181.713    -932.054      64.118
  H     -184.396    -927.400      70.995
  H     -184.385    -928.092      59.027
  H     -183.893    -927.410      65.398
  H     -184.079    -931.006      64.113
  H     -181.449    -929.907      64.466
  H     -184.349    -930.360      58.472
  H     -182.065    -928.837      66.570
  H     -184.076    -931.528      59.746
  H     -183.624    -931.419      67.195
  H     -185.144    -929.738      68.368
  H     -183.599    -930.054      69.164
  P     -180.233    -929.687      68.224
  C     -179.911    -930.942      70.479
  O     -179.440    -930.728      69.167
  O     -181.277    -928.982      69.217
  O     -179.406    -928.696      67.483
  H     -180.920    -928.113      69.504
  H     -180.999    -931.028      70.496
  H     -179.608    -930.098      71.113
  H     -179.475    -931.863      70.852
  H     -188.070    -928.096      68.284
  H     -187.375    -927.571      69.798
  H     -186.834    -929.058      69.058

 3  4  5  6  7  8  9  10  11  12  23  26  30  31  33  0
 6-311+G(2d,p)
 ****
 35  36  37  38 0
 6-311+G(2d,p)
 ****
 1  2  13  14  15  16  17  18  19  20  21  22  24  25  27  28  29 0
 3-21G
 ****
 32  34  39  40  41  42  43  44  45  46  47  48  49 0
 3-21G
 ****


