%nproc=1
%NoSave
%Mem=1900MB
#P OB98/GEN NMR

erre ene a

0 1
  C        7.793     -96.578    -232.861
  O        8.314     -96.362    -234.173
  P        7.599     -97.057    -235.422
  C        9.733     -97.676    -236.729
  O        8.535     -96.901    -236.713
  C       10.867     -96.915    -237.432
  O       10.583     -96.775    -238.852
  C       11.058     -95.495    -236.872
  O       12.440     -95.114    -236.932
  C       10.296     -94.632    -237.865
  O       10.729     -93.274    -237.818
  C       10.606     -95.365    -239.172
  N        9.364     -92.083    -242.905
  C       10.432     -92.138    -242.074
  N       10.704     -93.054    -241.119
  C        9.743     -93.995    -241.074
  C        8.607     -94.080    -241.865
  C        8.424     -93.056    -242.812
  N        7.329     -92.993    -243.640
  N        7.848     -95.188    -241.527
  C        8.503     -95.737    -240.518
  N        9.666     -95.077    -240.238
  O        6.166     -96.684    -235.638
  O        7.735     -98.620    -235.084
  H       10.182     -92.767    -238.444
  H        6.897     -99.076    -235.302
  H       11.152     -91.334    -242.190
  H        8.170     -96.598    -239.958
  H       11.613     -95.129    -239.544
  H        9.228     -94.662    -237.638
  H       10.694     -95.360    -235.844
  H       11.792     -97.489    -237.347
  H        9.550     -98.624    -237.238
  H        7.224     -92.154    -244.208
  H        6.553     -93.619    -243.477
  H       10.002     -97.930    -235.700
  P       13.316     -95.427    -235.614
  C       14.575     -93.134    -235.565
  O       14.640     -94.529    -235.746
  O       13.532     -96.888    -235.381
  O       12.459     -94.711    -234.467
  H       12.215     -93.791    -234.655
  H       15.588     -92.727    -235.566
  H       14.099     -92.885    -234.616
  H       14.014     -92.675    -236.389
  H        8.387     -96.043    -232.149
  H        7.820     -97.623    -232.634
  H        6.783     -96.229    -232.817

 3  4  5  6  7  8  9  10  11  12  22  25  29  30  31  32 0
 6-311+G(2d,p)
 ****
 33  36  37 0
 6-311+G(2d,p)
 ****
 1  2  13  14  15  16  17  18  19  20  21  23  24  26 0
 3-21G
 ****
 27  28  34  35  38  39  40  41  42  43  44  45  46  47  48 0
 3-21G
 ****


