%nproc=1
%NoSave
%Mem=1900MB
#P OB98/GEN NMR

erre ene a

0 1
  C      -98.837      16.000      46.263
  O      -99.312      14.781      45.728
  P      -99.514      13.500      46.671
  C      -98.028      12.292      48.400
  O      -98.067      13.203      47.304
  C      -96.607      11.776      48.628
  O      -96.109      11.125      47.442
  C      -95.596      12.864      48.960
  O      -95.731      13.277      50.308
  C      -94.286      12.157      48.640
  O      -93.864      11.326      49.734
  C      -94.674      11.295      47.418
  N      -94.218      11.874      46.161
  C      -93.028      11.349      45.643
  O      -92.413      10.476      46.257
  N      -92.539      11.864      44.466
  C      -93.170      12.830      43.875
  N      -92.629      13.305      42.719
  C      -94.410      13.432      44.405
  C      -94.872      12.912      45.542
  O     -100.184      12.333      46.027
  O     -100.331      14.093      47.916
  H      -93.012      10.931      49.461
  H     -101.275      14.268      47.679
  H      -94.894      14.244      43.884
  H      -95.774      13.296      46.003
  H      -94.244      10.288      47.507
  H      -93.475      12.864      48.442
  H      -95.729      13.715      48.279
  H      -96.642      11.032      49.436
  H      -91.763      12.885      42.406
  H      -98.686      11.449      48.170
  H      -93.018      14.077      42.200
  H      -98.408      12.790      49.298
  P      -95.394      14.786      50.719
  C      -93.310      16.283      50.721
  O      -93.801      14.957      50.693
  O      -96.069      15.281      51.955
  O      -95.866      15.633      49.441
  H      -96.353      16.423      49.746
  H      -92.263      16.263      51.033
  H      -93.879      16.899      51.423
  H      -93.374      16.717      49.720
  H      -98.770      16.730      45.483
  H      -97.869      15.848      46.693
  H      -99.512      16.346      47.018

 3  4  5  6  7  8  9  10  11  12  13  23  27  28  29  30  32 0
 6-311+G(2d,p)
 ****
 34  35 0
 6-311+G(2d,p)
 ****
 1  2  14  15  16  17  18  19  20  21  22  24  25  26 0
 3-21G
 ****
 31  33  36  37  38  39  40  41  42  43  44  45  46 0
 3-21G
 ****


