%nproc=1
%NoSave
%Mem=1900MB
#P OB98/GEN NMR

erre ene a

0 1
  C     -576.547    -110.589     333.852
  O     -577.869    -111.086     333.794
  H     -575.845    -111.325     333.442
  H     -576.482    -109.680     333.250
  H     -576.271    -110.348     334.883
  P     -578.176    -112.426     334.625
  C     -580.320    -113.348     335.771
  O     -579.637    -112.213     335.270
  C     -581.199    -112.939     336.952
  O     -580.379    -112.508     338.060
  C     -582.146    -111.776     336.653
  O     -583.317    -112.192     335.964
  C     -582.462    -111.311     338.065
  O     -583.427    -112.199     338.661
  C     -581.102    -111.447     338.759
  N     -578.525    -108.061     341.583
  C     -579.225    -109.158     341.920
  N     -579.894    -109.994     341.110
  C     -579.770    -109.619     339.819
  C     -579.090    -108.525     339.331
  C     -578.432    -107.718     340.281
  N     -577.718    -106.580     339.947
  N     -579.218    -108.429     337.959
  C     -579.937    -109.482     337.624
  N     -580.313    -110.233     338.723
  O     -577.200    -112.318     335.891
  O     -578.012    -113.707     333.875
  H     -583.542    -111.916     339.584
  H     -577.067    -113.201     336.281
  H     -579.272    -109.380     342.983
  H     -580.217    -109.750     336.614
  H     -581.193    -111.749     339.810
  H     -582.894    -110.302     338.092
  H     -581.624    -110.964     336.120
  H     -581.772    -113.818     337.274
  H     -579.589    -114.092     336.111
  H     -577.445    -105.980     340.710
  H     -577.773    -106.245     338.998
  H     -580.929    -113.787     334.973
  P     -584.115    -111.083     335.132
  C     -585.656    -111.121     333.034
  O     -584.930    -111.864     334.006
  O     -582.954    -110.333     334.301
  O     -584.913    -110.126     335.965
  H     -583.213    -109.421     334.082
  H     -586.141    -111.795     332.359
  H     -584.982    -110.493     332.489
  H     -586.390    -110.516     333.523

 6  7  8  9  10  11  12  13  14  15  25  28  32  33  34  35 0
 6-311+G(2d,p)
 ****
 36  39  40 0
 6-311+G(2d,p)
 ****
 1  2  3  4  5  16  17  18  19  20  21  22  23  24 0
 3-21G
 ****
 26  27  29  30  31  37  38  41  42  43  44  45  46  47 0
 3-21G
 ****
 48 0
 3-21G
 ****


