%nproc=1
%NoSave
%Mem=1900MB
#P OB98/GEN NMR

erre ene a

0 1
  C      113.219      87.511     -43.108
  O      111.833      87.259     -42.937
  P      110.806      88.399     -43.406
  C      109.961      88.333     -40.945
  O      110.304      89.132     -42.070
  C      110.516      88.952     -39.666
  O      111.901      89.323     -39.837
  C      109.812      90.233     -39.236
  O      108.602      89.977     -38.541
  C      110.845      90.834     -38.296
  O      110.768      90.198     -37.007
  C      112.163      90.474     -38.995
  N      113.475      95.362     -38.984
  C      113.159      94.527     -37.926
  N      113.133      95.094     -36.702
  N      112.897      93.254     -38.057
  C      112.953      92.825     -39.345
  C      113.257      93.555     -40.474
  C      113.533      94.970     -40.314
  O      113.767      95.767     -41.214
  N      113.221      92.774     -41.599
  C      112.900      91.574     -41.154
  N      112.684      91.563     -39.801
  O      109.519      87.568     -43.872
  O      111.320      89.297     -44.482
  H      111.686      90.078     -36.698
  H      108.942      88.129     -44.427
  H      113.663      96.337     -38.831
  H      112.797      90.692     -41.776
  H      112.938      90.181     -38.278
  H      110.699      91.907     -38.132
  H      113.263      96.083     -36.541
  H      109.656      90.909     -40.086
  H      112.842      94.522     -35.918
  H      110.464      88.196     -38.872
  H      110.374      87.332     -41.078
  H      108.868      88.251     -40.881
  P      107.247      90.503     -39.225
  C      106.606      91.938     -37.158
  O      106.944      91.916     -38.533
  O      106.132      89.528     -38.624
  O      107.264      90.493     -40.718
  H      105.377      89.458     -39.231
  H      106.693      92.970     -36.792
  H      107.274      91.303     -36.574
  H      105.571      91.606     -37.024
  H      113.780      86.672     -42.754
  H      113.494      88.383     -42.553
  H      113.428      87.668     -44.146

 3  4  5  6  7  8  9  10  11  12  23  26  30  31 0
 6-311+G(2d,p)
 ****
 33  35  36  37  38 0
 6-311+G(2d,p)
 ****
 1  2  13  14  15  16  17  18  19  20  21  22  24  25 0
 3-21G
 ****
 27  28  29  32  34  39  40  41  42  43  44  45  46  47  48  49 0
 3-21G
 ****


