%nproc=1
%NoSave
%Mem=1900MB
#P OB98/GEN NMR

erre ene a

0 1
  C       87.913     730.685    -189.688
  O       87.517     729.431    -190.204
  H       87.172     731.452    -189.946
  H       87.973     730.616    -188.598
  H       88.897     730.972    -190.078
  P       87.402     729.317    -191.805
  C       89.715     728.169    -192.042
  O       88.903     729.291    -192.365
  C       90.130     727.428    -193.307
  O       90.792     728.338    -194.215
  C       91.123     726.286    -193.083
  O       90.460     725.110    -192.635
  C       91.674     726.118    -194.493
  O       90.735     725.372    -195.293
  C       91.750     727.565    -194.988
  N       96.705     727.148    -196.216
  C       95.615     726.441    -196.599
  N       94.323     726.623    -196.244
  C       94.209     727.678    -195.425
  C       95.222     728.514    -194.971
  C       96.529     728.209    -195.402
  N       97.634     728.907    -194.952
  N       94.712     729.489    -194.131
  C       93.421     729.236    -194.070
  N       93.067     728.152    -194.834
  O       86.865     730.783    -192.222
  O       86.492     728.241    -192.302
  H       91.202     725.112    -196.116
  H       85.898     730.744    -192.333
  H       95.817     725.598    -197.272
  H       92.707     729.792    -193.470
  H       91.464     727.661    -196.053
  H       92.626     725.564    -194.518
  H       91.934     726.579    -192.416
  H       89.221     727.074    -193.797
  H       89.150     727.484    -191.390
  H       98.491     728.345    -194.928
  H       97.475     729.507    -194.143
  H       90.600     728.523    -191.492
  P       91.322     724.049    -191.797
  C       90.141     724.602    -189.564
  O       91.366     724.584    -190.278
  O       92.822     724.297    -192.335
  O       90.916     722.614    -191.975
  H       93.190     723.469    -192.680
  H       90.310     724.976    -188.576
  H       89.747     723.609    -189.507
  H       89.442     725.234    -190.071

 6  7  8  9  10  11  12  13  14  15  25  28  32  33  34  35 0
 6-311+G(2d,p)
 ****
 36  39  40 0
 6-311+G(2d,p)
 ****
 1  2  3  4  5  16  17  18  19  20  21  22  23  24 0
 3-21G
 ****
 26  27  29  30  31  37  38  41  42  43  44  45  46  47  48 0
 3-21G
 ****


