%nproc=1
%NoSave
%Mem=1900MB
#P OB98/GEN NMR

erre ene a

0 1
  C     -241.600    -155.753      38.747
  O     -240.218    -155.694      39.053
  P     -239.434    -157.093      39.148
  C     -239.679    -159.232      40.628
  O     -240.122    -157.915      40.336
  C     -240.545    -159.833      41.736
  O     -241.846    -160.187      41.218
  C     -239.974    -161.101      42.355
  O     -239.000    -160.778      43.329
  C     -241.230    -161.748      42.931
  O     -241.579    -161.158      44.199
  C     -242.279    -161.417      41.862
  N     -245.336    -165.122      40.288
  C     -245.379    -164.367      41.442
  N     -246.414    -164.607      42.280
  N     -244.492    -163.457      41.751
  C     -243.507    -163.337      40.828
  C     -243.346    -164.035      39.656
  C     -244.365    -165.001      39.303
  O     -244.427    -165.622      38.247
  N     -242.213    -163.651      38.991
  C     -241.705    -162.699      39.748
  N     -242.463    -162.457      40.865
  O     -238.011    -156.669      39.738
  O     -239.322    -157.847      37.861
  H     -240.842    -161.282      44.824
  H     -237.349    -156.595      39.024
  H     -246.057    -165.795      40.095
  H     -240.809    -162.144      39.522
  H     -243.265    -161.219      42.298
  H     -241.096    -162.819      43.111
  H     -247.118    -165.305      42.122
  H     -239.550    -161.749      41.580
  H     -246.455    -164.063      43.134
  H     -240.694    -159.060      42.502
  H     -238.640    -159.192      40.966
  H     -239.735    -159.840      39.718
  P     -237.851    -161.865      43.614
  C     -237.897    -164.384      44.231
  O     -238.555    -163.131      44.291
  O     -237.010    -161.204      44.808
  O     -236.981    -162.163      42.439
  H     -236.066    -161.420      44.696
  H     -238.174    -164.967      45.112
  H     -236.809    -164.271      44.206
  H     -238.224    -164.915      43.335
  H     -242.001    -154.761      38.714
  H     -242.108    -156.318      39.500
  H     -241.735    -156.224      37.796

 3  4  5  6  7  8  9  10  11  12  23  26  30  31 0
 6-311+G(2d,p)
 ****
 33  35  36  37  38 0
 6-311+G(2d,p)
 ****
 1  2  13  14  15  16  17  18  19  20  21  22  24  25 0
 3-21G
 ****
 27  28  29  32  34  39  40  41  42  43  44  45  46  47  48  49 0
 3-21G
 ****


