%nproc=1
%NoSave
%Mem=1900MB
#P OB98/GEN NMR

erre ene a

0 1
  C     -196.686     327.304     339.741
  O     -197.128     327.355     341.079
  H     -195.622     327.050     339.738
  H     -196.810     328.274     339.256
  H     -197.230     326.535     339.188
  P     -198.610     327.893     341.390
  C     -199.114     325.953     342.989
  O     -199.460     326.573     341.757
  C     -199.935     324.683     343.227
  O     -201.333     325.032     343.401
  C     -199.852     323.669     342.081
  O     -199.622     322.363     342.617
  C     -201.226     323.741     341.434
  O     -201.556     322.545     340.734
  C     -202.102     324.078     342.646
  N     -203.408     324.611     342.273
  C     -204.470     324.318     343.135
  O     -204.287     323.613     344.128
  N     -205.720     324.797     342.833
  C     -205.906     325.465     341.739
  N     -207.170     325.902     341.491
  C     -204.824     325.757     340.777
  C     -203.613     325.310     341.107
  O     -199.202     328.743     340.316
  O     -198.479     328.638     342.799
  H     -202.507     322.582     340.485
  H     -199.240     329.259     342.914
  H     -205.031     326.308     339.872
  H     -202.756     325.486     340.464
  H     -202.257     323.190     343.273
  H     -201.250     324.571     340.716
  H     -199.063     323.891     341.365
  H     -199.611     324.237     344.175
  H     -207.883     325.683     342.176
  H     -199.280     326.669     343.801
  H     -207.433     326.425     340.669
  H     -198.052     325.689     342.954
  P     -198.123     321.798     342.486
  C     -197.005     322.187     344.789
  O     -197.185     322.661     343.464
  O     -197.686     322.270     341.021
  O     -198.025     320.319     342.647
  H     -197.762     321.526     340.393
  H     -196.362     322.855     345.323
  H     -196.564     321.213     344.762
  H     -197.954     322.135     345.281

 6  7  8  9  10  11  12  13  14  15  16  26  30  31  32  33  35 0
 6-311+G(2d,p)
 ****
 37  38 0
 6-311+G(2d,p)
 ****
 1  2  3  4  5  17  18  19  20  21  22  23  24  25 0
 3-21G
 ****
 27  28  29  34  36  39  40  41  42  43  44  45  46 0
 3-21G
 ****


