%nproc=1
%NoSave
%Mem=1900MB
#P OB98/GEN NMR

erre ene a

0 1
  C      114.715    -674.779       0.216
  O      115.906    -674.836      -0.552
  H      113.970    -674.195      -0.339
  H      114.909    -674.280       1.173
  H      114.326    -675.784       0.384
  P      117.119    -675.683       0.066
  C      117.887    -676.552      -2.266
  O      118.218    -675.805      -1.104
  C      118.888    -676.253      -3.381
  O      118.602    -674.946      -3.939
  C      120.345    -676.190      -2.926
  O      120.910    -677.477      -2.766
  C      120.971    -675.381      -4.049
  O      121.310    -676.209      -5.171
  C      119.855    -674.404      -4.429
  N      121.805    -669.793      -5.395
  C      121.683    -670.905      -6.166
  N      121.128    -672.089      -5.831
  C      120.669    -672.059      -4.567
  C      120.731    -671.012      -3.669
  C      121.336    -669.820      -4.127
  N      121.499    -668.707      -3.329
  N      120.197    -671.381      -2.447
  C      119.807    -672.635      -2.614
  N      120.067    -673.081      -3.879
  O      116.512    -677.157       0.168
  O      117.639    -675.194       1.379
  H      121.691    -675.612      -5.860
  H      116.158    -677.307       1.069
  H      122.086    -670.820      -7.173
  H      119.338    -673.246      -1.852
  H      119.751    -674.292      -5.521
  H      121.898    -674.899      -3.715
  H      120.414    -675.620      -1.986
  H      118.756    -676.998      -4.177
  H      116.881    -676.270      -2.593
  H      117.903    -677.625      -2.024
  H      121.962    -667.900      -3.720
  H      121.243    -668.760      -2.341
  P      121.180    -678.027      -1.289
  C      121.229    -680.528      -2.015
  O      121.924    -679.439      -1.418
  O      119.714    -678.419      -0.763
  O      121.856    -677.053      -0.380
  H      119.360    -677.717      -0.186
  H      121.860    -681.392      -2.025
  H      120.959    -680.272      -3.018
  H      120.345    -680.739      -1.451

 6  7  8  9  10  11  12  13  14  15  25  28  32  33  34  35 0
 6-311+G(2d,p)
 ****
 36  37  40 0
 6-311+G(2d,p)
 ****
 1  2  3  4  5  16  17  18  19  20  21  22  23  24 0
 3-21G
 ****
 26  27  29  30  31  38  39 41  42  43  44  45  46  47  48 0
 3-21G
 ****


