%nproc=1
%NoSave
%Mem=1900MB
#P OB98/GEN NMR

erre ene a

0 1
  C       78.980    -715.511    1041.126
  O       79.691    -714.289    1041.416
  P       79.347    -712.892    1040.723
  C       78.954    -711.583    1042.920
  O       78.388    -712.047    1041.689
  C       77.868    -711.228    1043.949
  O       77.132    -712.401    1044.328
  C       78.390    -710.631    1045.247
  O       78.779    -709.284    1045.089
  C       77.205    -710.865    1046.169
  O       76.228    -709.817    1046.003
  C       76.650    -712.214    1045.675
  N       77.029    -713.322    1046.536
  C       76.468    -713.321    1047.828
  O       75.751    -712.399    1048.196
  N       76.760    -714.376    1048.660
  C       77.595    -715.301    1048.276
  N       77.838    -716.308    1049.151
  C       78.273    -715.280    1046.971
  C       77.945    -714.275    1046.161
  O       78.835    -713.018    1039.316
  O       80.712    -712.064    1040.751
  H       75.988    -709.799    1045.051
  H       80.752    -711.470    1039.974
  H       78.981    -716.049    1046.700
  H       78.383    -714.194    1045.173
  H       75.558    -712.169    1045.604
  H       77.479    -710.866    1047.233
  H       79.246    -711.236    1045.608
  H       77.169    -710.525    1043.463
  H       77.353    -716.297    1050.039
  H       79.547    -710.686    1042.700
  H       78.465    -717.076    1048.955
  H       79.624    -712.361    1043.320
  P       80.244    -708.944    1044.516
  C       79.580    -708.122    1042.171
  O       80.209    -709.139    1042.932
  O       81.382    -709.607    1045.222
  O       80.337    -707.345    1044.671
  H       81.261    -707.096    1044.834
  H       79.950    -708.154    1041.142
  H       79.782    -707.128    1042.603
  H       78.495    -708.292    1042.162
  H       79.389    -716.309    1041.710
  H       79.079    -715.743    1040.086
  H       77.945    -715.387    1041.367

 3  4  5  6  7  8  9  10  11  12  13  23  27  28  29  30  32 0
 6-311+G(2d,p)
 ****
 34  35 0
 6-311+G(2d,p)
 ****
 1  2  14  15  16  17  18  19  20  21  22  24  25  26 0
 3-21G
 ****
 31  33  36  37  38  39  40  41  42  43  44  45  46 0
 3-21G
 ****


