%nproc=1
%NoSave
%Mem=1900MB
#P OB98/GEN NMR

erre ene a

0 1
  C      -96.247     399.428    -266.074
  O      -96.434     399.061    -264.723
  H      -96.923     398.831    -266.692
  H      -95.219     399.217    -266.381
  H      -96.475     400.486    -266.226
  P      -95.665     399.883    -263.582
  C      -97.654     399.915    -261.936
  O      -96.324     399.475    -262.175
  C      -98.665     398.934    -262.538
  O      -98.590     397.685    -261.801
  C     -100.113     399.431    -262.475
  O     -100.799     399.020    -263.657
  C     -100.681     398.701    -261.273
  O     -102.097     398.537    -261.358
  C      -99.912     397.380    -261.311
  N     -100.993     393.218    -258.658
  C     -101.126     393.475    -260.007
  N     -101.646     392.483    -260.764
  N     -100.786     394.606    -260.568
  C     -100.263     395.500    -259.695
  C     -100.077     395.366    -258.337
  C     -100.476     394.117    -257.728
  O     -100.394     393.838    -256.536
  N      -99.533     396.506    -257.797
  C      -99.393     397.324    -258.822
  N      -99.833     396.767    -259.994
  O      -95.570     401.357    -263.822
  O      -94.218     399.207    -263.515
  H     -102.262     397.853    -262.043
  H      -93.546     399.777    -263.933
  H     -101.279     392.334    -258.276
  H      -98.988     398.328    -258.774
  H     -100.372     396.647    -261.979
  H     -100.458     399.261    -260.356
  H     -101.909     391.577    -260.403
  H     -100.178     400.515    -262.367
  H     -101.728     392.634    -261.761
  H      -98.367     398.718    -263.572
  H      -97.777     400.899    -262.398
  H      -97.814     400.010    -260.858
  P     -100.588     399.862    -265.010
  C     -100.051     397.852    -266.520
  O     -100.947     398.923    -266.263
  O      -99.284     400.581    -265.119
  O     -101.815     400.895    -264.979
  H     -101.526     401.741    -265.377
  H     -100.390     397.300    -267.372
  H     -100.014     397.206    -265.668
  H      -99.074     398.243    -266.714

 6  7  8  9  10  11  12  13  14  15  26  29  33  34 0
 6-311+G(2d,p)
 ****
 36  38  39  40  41 0
 6-311+G(2d,p)
 ****
 1  2  3  4  5  16  17  18  19  20  21  22  23  24  25 0
 3-21G
 ****
 27  28  30  31  32  35  37  42  43  44  45  46  47 0
 3-21G
 ****
 48  49 0
 3-21G
 ****


