%nproc=1
%NoSave
%Mem=1900MB
#P OB98/GEN NMR

erre ene a

0 1
  C      414.783      81.322     -68.508
  O      414.538      80.091     -67.826
  P      413.275      79.215     -68.281
  C      414.411      76.920     -67.843
  O      413.345      77.807     -67.524
  C      414.695      75.980     -66.666
  O      415.409      76.651     -65.600
  C      413.434      75.406     -66.031
  O      412.947      74.277     -66.745
  C      413.966      74.968     -64.671
  O      414.644      73.703     -64.797
  C      414.964      76.083     -64.342
  N      412.983      77.138     -59.805
  C      413.475      75.949     -60.307
  N      413.452      74.888     -59.469
  N      413.963      75.809     -61.511
  C      413.941      76.963     -62.225
  C      413.480      78.203     -61.844
  C      412.929      78.332     -60.512
  O      412.465      79.361     -60.019
  N      413.622      79.124     -62.849
  C      414.189      78.450     -63.835
  N      414.393      77.133     -63.513
  O      413.634      78.832     -69.790
  O      411.967      79.935     -68.186
  H      414.156      73.190     -65.470
  H      412.814      78.698     -70.307
  H      412.618      77.185     -58.872
  H      414.482      78.878     -64.786
  H      415.857      75.707     -63.823
  H      413.169      74.828     -63.939
  H      413.138      74.930     -58.516
  H      412.663      76.179     -65.898
  H      413.841      74.012     -59.810
  H      415.321      75.152     -67.034
  H      415.318      77.481     -68.089
  H      414.156      76.363     -68.748
  P      411.466      74.362     -67.362
  C      412.315      73.882     -69.770
  O      411.497      73.463     -68.691
  O      411.396      75.867     -67.902
  O      410.371      74.067     -66.398
  H      410.481      76.197     -67.845
  H      412.337      73.076     -70.517
  H      413.341      74.065     -69.427
  H      411.909      74.782     -70.232
  H      415.653      81.791     -68.097
  H      413.939      81.969     -68.389
  H      414.940      81.128     -69.548

 3  4  5  6  7  8  9  10  11  12  23  26  30  31 0
 6-311+G(2d,p)
 ****
 33  35  36  37  38 0
 6-311+G(2d,p)
 ****
 1  2  13  14  15  16  17  18  19  20  21  22  24  25 0
 3-21G
 ****
 27  28  29  32  34  39  40  41  42  43  44  45  46  47  48  49 0
 3-21G
 ****


