%nproc=1
%NoSave
%Mem=1900MB
#P OB98/GEN NMR

erre ene a

0 1
  C     -119.035     326.372    -306.883
  O     -120.192     326.347    -306.074
  H     -119.285     326.821    -307.847
  H     -118.683     325.351    -307.051
  H     -118.243     326.966    -306.414
  P     -119.993     326.022    -304.517
  C     -121.101     328.239    -303.746
  O     -121.140     326.820    -303.718
  C     -122.052     328.814    -302.700
  O     -123.422     328.631    -303.150
  C     -121.925     328.155    -301.317
  O     -122.076     329.162    -300.304
  C     -123.111     327.205    -301.265
  O     -123.531     326.916    -299.931
  C     -124.143     327.969    -302.091
  N     -128.382     325.469    -301.011
  C     -127.660     326.374    -300.250
  N     -128.137     326.645    -299.012
  N     -126.568     326.956    -300.672
  C     -126.232     326.614    -301.940
  C     -126.863     325.730    -302.787
  C     -128.051     325.068    -302.298
  O     -128.724     324.242    -302.910
  N     -126.193     325.627    -303.985
  C     -125.167     326.444    -303.859
  N     -125.151     327.072    -302.637
  O     -118.655     326.819    -304.145
  O     -119.878     324.573    -304.175
  H     -122.819     326.386    -299.510
  H     -117.957     326.190    -303.893
  H     -129.214     325.037    -300.627
  H     -124.403     326.615    -304.606
  H     -124.669     328.730    -301.504
  H     -122.842     326.257    -301.751
  H     -128.991     326.272    -298.645
  H     -120.976     327.637    -301.174
  H     -127.641     327.335    -298.460
  H     -121.883     329.897    -302.630
  H     -121.408     328.578    -304.743
  H     -120.081     328.577    -303.548
  P     -120.749     329.572    -299.489
  C     -121.557     332.001    -299.092
  O     -121.127     330.783    -298.499
  O     -119.833     330.257    -300.605
  O     -120.060     328.413    -298.846
  H     -119.087     329.675    -300.831
  H     -121.774     332.714    -298.324
  H     -122.438     331.823    -299.673
  H     -120.783     332.382    -299.725

 6  7  8  9  10  11  12  13  14  15  26  29  33  34 0
 6-311+G(2d,p)
 ****
 36  38  39  40  41 0
 6-311+G(2d,p)
 ****
 1  2  3  4  5  16  17  18  19  20  21  22  23  24  25 0
 3-21G
 ****
 27  28  30  31  32  35  37  42  43  44  45  46  47 0
 3-21G
 ****
 48  49 0
 3-21G
 ****


