%nproc=1
%NoSave
%Mem=1900MB
#P OB98/GEN NMR

erre ene a

0 1
  C     -103.173      57.795     175.710
  O     -103.597      59.109     175.386
  P     -103.865      59.434     173.835
  C     -102.381      59.669     171.703
  O     -102.431      59.507     173.119
  C     -100.945      59.935     171.258
  O     -100.492      61.204     171.769
  C      -99.927      58.914     171.751
  O     -100.013      57.704     171.013
  C      -98.631      59.693     171.552
  O      -98.241      59.654     170.169
  C      -99.053      61.120     171.943
  N      -96.302      64.198     174.982
  C      -96.384      64.101     173.634
  N      -97.123      63.239     172.899
  C      -97.835      62.427     173.696
  C      -97.835      62.395     175.081
  C      -97.026      63.336     175.733
  N      -96.941      63.434     177.109
  N      -98.677      61.406     175.550
  C      -99.181      60.856     174.464
  N      -98.719      61.446     173.321
  O     -104.348      60.956     173.858
  O     -104.868      58.537     173.168
  H      -99.031      59.880     169.636
  H     -105.010      61.123     173.164
  H      -95.778      64.806     173.071
  H      -99.891      60.034     174.457
  H      -98.596      61.885     171.302
  H      -97.799      59.297     172.140
  H     -100.082      58.708     172.820
  H     -100.936      59.980     170.159
  H     -103.007      60.519     171.410
  H      -96.226      64.033     177.491
  H      -97.367      62.703     177.664
  H     -102.781      58.766     171.228
  P      -99.770      56.335     171.814
  C      -97.769      55.408     173.139
  O      -98.225      56.419     172.257
  O      -99.734      55.264     170.624
  O     -100.746      56.061     172.911
  H      -99.154      55.546     169.899
  H      -96.699      55.554     173.311
  H      -97.926      54.420     172.697
  H      -98.297      55.481     174.094
  H     -103.032      57.716     176.768
  H     -102.250      57.585     175.211
  H     -103.917      57.093     175.396

 3  4  5  6  7  8  9  10  11  12  22  25  29  30  31  32 0
 6-311+G(2d,p)
 ****
 33  36  37 0
 6-311+G(2d,p)
 ****
 1  2  13  14  15  16  17  18  19  20  21  23  24  26 0
 3-21G
 ****
 27  28  34  35  38  39  40  41  42  43  44  45  46  47  48 0
 3-21G
 ****


