%nproc=1
%NoSave
%Mem=1900MB
#P OB98/GEN NMR

erre ene a

0 1
  C     -102.148      90.342    -247.208
  O     -101.069      89.519    -246.814
  H     -102.320      91.109    -246.451
  H     -101.892      90.831    -248.152
  H     -103.057      89.751    -247.353
  P     -101.337      88.478    -245.624
  C     -101.220      86.452    -247.242
  O     -101.996      87.177    -246.300
  C     -102.124      85.756    -248.257
  O     -102.881      86.772    -248.976
  C     -101.374      84.907    -249.295
  O     -102.136      83.723    -249.548
  C     -101.391      85.780    -250.536
  O     -101.281      85.029    -251.739
  C     -102.728      86.496    -250.379
  N     -104.804      88.688    -254.469
  C     -105.144      87.588    -253.766
  N     -104.565      87.101    -252.650
  C     -103.580      87.914    -252.232
  C     -103.124      89.071    -252.839
  C     -103.774      89.448    -254.027
  N     -103.393      90.528    -254.788
  N     -102.055      89.594    -252.137
  C     -101.854      88.752    -251.143
  N     -102.750      87.720    -251.160
  O     -102.561      89.157    -244.844
  O     -100.177      88.217    -244.724
  H     -102.066      84.453    -251.826
  H     -102.219      89.780    -244.177
  H     -105.982      87.016    -254.156
  H     -101.065      88.825    -250.408
  H     -103.577      85.881    -250.705
  H     -100.556      86.491    -250.495
  H     -100.356      84.633    -248.990
  H     -102.852      85.144    -247.711
  H     -100.633      85.694    -246.712
  H     -103.847      90.658    -255.680
  H     -102.560      91.038    -254.531
  H     -100.534      87.137    -247.749
  P     -101.900      82.471    -248.576
  C     -104.343      82.438    -247.675
  O     -102.956      82.552    -247.375
  O     -100.507      82.814    -247.867
  O     -101.847      81.156    -249.284
  H     -100.013      81.996    -247.678
  H     -104.911      82.512    -246.771
  H     -104.531      81.492    -248.138
  H     -104.630      83.225    -248.341

 6  7  8  9  10  11  12  13  14  15  25  28  32  33  34  35 0
 6-311+G(2d,p)
 ****
 36  39  40 0
 6-311+G(2d,p)
 ****
 1  2  3  4  5  16  17  18  19  20  21  22  23  24 0
 3-21G
 ****
 26  27  29  30  31  37  38  41  42  43  44  45  46  47 0
 3-21G
 ****
 48 0
 3-21G
 ****


