%nproc=1
%NoSave
%Mem=1900MB
#P OB98/GEN NMR

erre ene a

0 1
  C     -122.817     534.992    -315.900
  O     -122.223     534.351    -314.786
  P     -120.878     533.512    -315.037
  C     -120.104     531.690    -316.729
  O     -121.172     532.490    -316.234
  C     -120.617     530.824    -317.891
  O     -121.590     531.547    -318.671
  C     -119.521     530.425    -318.876
  O     -118.746     529.347    -318.375
  C     -120.335     530.062    -320.111
  O     -120.833     528.716    -320.026
  C     -121.495     531.076    -320.035
  N     -121.343     532.180    -320.982
  C     -121.984     532.028    -322.202
  O     -122.631     531.022    -322.498
  N     -121.832     533.053    -323.095
  C     -121.064     534.166    -322.904
  O     -120.916     535.028    -323.769
  C     -120.382     534.265    -321.606
  C     -120.545     533.281    -320.722
  O     -120.767     532.571    -313.750
  O     -119.653     534.349    -315.227
  H     -120.049     528.140    -319.910
  H     -119.828     532.455    -313.500
  H     -122.307     532.976    -323.975
  H     -119.770     535.134    -321.428
  H     -120.044     533.319    -319.758
  H     -122.446     530.577    -320.245
  H     -119.743     530.126    -321.026
  H     -118.886     531.297    -319.104
  H     -121.099     529.934    -317.476
  H     -119.726     531.052    -315.934
  H     -119.295     532.346    -317.066
  P     -117.262     529.179    -318.977
  C     -116.466     528.534    -321.384
  O     -117.473     528.456    -320.401
  O     -116.670     528.048    -318.015
  O     -116.485     530.455    -318.980
  H     -117.364     527.419    -317.719
  H     -115.461     528.515    -320.935
  H     -116.586     529.448    -321.956
  H     -116.561     527.680    -322.054
  H     -123.699     535.509    -315.585
  H     -123.076     534.260    -316.636
  H     -122.125     535.691    -316.320

 3  4  5  6  7  8  9  10  11  12  13  23  28  29  30  31  32 0
 6-311+G(2d,p)
 ****
 33  34 0
 6-311+G(2d,p)
 ****
 1  2  14  15  16  17  18  19  20  21  22  24  25  26 0
 3-21G
 ****
 27  35  36  37  38  39  40  41  42  43  44  45 0
 3-21G
 ****


