%nproc=1
%NoSave
%Mem=1900MB
#P OB98/GEN NMR

erre ene a

0 1
  C     -348.333    -532.946     186.481
  O     -347.796    -533.395     185.230
  P     -348.450    -533.039     183.811
  C     -346.624    -533.745     182.130
  O     -347.892    -534.053     182.696
  C     -345.472    -534.257     182.999
  O     -345.640    -535.683     183.270
  C     -344.076    -534.073     182.374
  O     -343.192    -533.716     183.447
  C     -343.777    -535.467     181.850
  O     -342.407    -535.704     181.594
  C     -344.369    -536.309     182.983
  N     -344.549    -537.723     182.691
  C     -343.549    -538.607     183.122
  O     -342.531    -538.204     183.679
  N     -343.722    -539.953     182.891
  C     -344.784    -540.383     182.284
  N     -344.892    -541.726     182.100
  C     -345.845    -539.488     181.795
  C     -345.666    -538.189     182.034
  O     -348.303    -531.602     183.427
  O     -349.999    -533.430     183.940
  H     -350.534    -532.790     183.433
  H     -341.907    -535.474     182.398
  H     -346.717    -539.884     181.303
  H     -346.420    -537.466     181.731
  H     -343.750    -536.194     183.881
  H     -344.319    -535.611     180.909
  H     -344.035    -533.289     181.612
  H     -345.526    -533.747     183.968
  H     -344.146    -542.307     182.457
  H     -346.540    -532.658     182.039
  H     -345.680    -542.167     181.648
  H     -346.567    -534.179     181.125
  P     -342.408    -532.318     183.396
  C     -342.540    -531.561     185.883
  O     -341.747    -532.080     184.836
  O     -343.618    -531.262     183.409
  O     -341.539    -532.092     182.203
  H     -343.319    -530.432     182.989
  H     -342.337    -532.131     186.795
  H     -343.611    -531.622     185.667
  H     -342.272    -530.517     186.051
  H     -347.724    -533.311     187.282
  H     -349.331    -533.316     186.594
  H     -348.345    -531.876     186.501

 3  4  5  6  7  8  9  10  11  12  13  24  27  28  29  30  32 0
 6-311+G(2d,p)
 ****
 34  35 0
 6-311+G(2d,p)
 ****
 1  2  14  15  16  17  18  19  20  21  22  23  25  26 0
 3-21G
 ****
 31  33  36  37  38  39  40  41  42  43  44  45  46 0
 3-21G
 ****


