%nproc=1
%NoSave
%Mem=1900MB
#P OB98/GEN NMR

erre ene a

0 1
  C     -356.837     226.772      80.159
  O     -357.765     225.874      80.732
  H     -357.198     227.799      80.306
  H     -356.735     226.585      79.084
  H     -355.860     226.671      80.644
  P     -357.460     224.308      80.525
  C     -358.851     222.764      78.947
  O     -358.137     223.978      79.105
  C     -359.665     222.807      77.654
  O     -360.769     223.735      77.780
  C     -358.876     223.277      76.436
  O     -358.052     222.264      75.880
  C     -360.014     223.644      75.500
  O     -360.597     222.448      74.949
  C     -360.991     224.335      76.482
  N     -360.807     225.793      76.545
  C     -361.958     226.584      76.561
  O     -363.077     226.062      76.509
  N     -361.825     227.958      76.595
  C     -360.643     228.496      76.627
  N     -360.574     229.848      76.645
  C     -359.399     227.699      76.628
  C     -359.551     226.382      76.592
  O     -358.460     223.592      81.555
  O     -356.033     223.903      80.672
  H     -360.856     221.886      75.710
  H     -358.442     222.614      81.419
  H     -358.430     228.187      76.653
  H     -358.678     225.723      76.585
  H     -362.033     224.144      76.196
  H     -359.696     224.265      74.657
  H     -358.299     224.182      76.654
  H     -360.101     221.808      77.493
  H     -361.434     230.377      76.585
  H     -359.521     222.641      79.802
  H     -359.709     230.355      76.487
  H     -358.160     221.918      78.910
  P     -356.569     222.673      75.437
  C     -355.599     223.673      73.232
  O     -356.710     223.585      74.123
  O     -355.976     221.303      74.842
  O     -355.706     223.230      76.528
  H     -355.035     221.196      75.095
  H     -355.849     224.313      72.412
  H     -355.360     222.698      72.863
  H     -354.755     224.074      73.753

 6  7  8  9  10  11  12  13  14  15  16  26  30  31  32  33  35 0
 6-311+G(2d,p)
 ****
 37  38 0
 6-311+G(2d,p)
 ****
 1  2  3  4  5  17  18  19  20  21  22  23  24  25 0
 3-21G
 ****
 27  28  29  34  36  39  40  41  42  43  44  45  46 0
 3-21G
 ****


