%nproc=1
%NoSave
%Mem=1900MB
#P OB98/GEN NMR

erre ene a

0 1
  C     -501.751    -283.683     530.771
  O     -502.465    -284.858     531.098
  H     -500.714    -283.935     530.539
  H     -502.210    -283.225     529.891
  H     -501.782    -282.967     531.598
  P     -502.169    -285.536     532.521
  C     -504.575    -286.090     533.316
  O     -503.449    -285.236     533.441
  C     -505.777    -285.321     532.759
  O     -505.465    -284.886     531.394
  C     -507.088    -286.138     532.702
  O     -508.174    -285.282     533.046
  C     -507.204    -286.518     531.232
  O     -508.548    -286.755     530.828
  C     -506.574    -285.284     530.565
  N     -508.210    -286.299     525.867
  C     -508.827    -285.756     526.931
  N     -508.292    -285.483     528.143
  C     -506.977    -285.734     528.164
  C     -506.214    -286.289     527.150
  C     -506.891    -286.587     525.946
  N     -506.279    -287.200     524.858
  N     -504.901    -286.455     527.573
  C     -504.892    -286.044     528.819
  N     -506.124    -285.603     529.225
  O     -501.039    -284.573     533.127
  O     -501.724    -286.959     532.479
  H     -509.064    -285.935     530.967
  H     -500.157    -284.877     532.837
  H     -509.887    -285.540     526.820
  H     -504.040    -286.077     529.485
  H     -507.269    -284.441     530.496
  H     -506.614    -287.421     531.034
  H     -507.088    -287.026     533.356
  H     -505.923    -284.429     533.363
  H     -504.836    -286.495     534.301
  H     -506.879    -287.479     524.097
  H     -505.328    -287.518     524.968
  H     -504.322    -286.932     532.649
  P     -508.584    -285.207     534.598
  C     -508.467    -282.654     535.098
  O     -507.868    -283.923     535.257
  O     -507.785    -286.442     535.254
  O     -510.055    -285.299     534.853
  H     -508.292    -286.812     536.002
  H     -507.872    -281.914     535.591
  H     -509.447    -282.666     535.526
  H     -508.536    -282.420     534.056

 6  7  8  9  10  11  12  13  14  15  25  28  32  33  34  35 0
 6-311+G(2d,p)
 ****
 36  39  40 0
 6-311+G(2d,p)
 ****
 1  2  3  4  5  16  17  18  19  20  21  22  23  24 0
 3-21G
 ****
 26  27  29  30  31  37  38  41  42  43  44  45  46  47 0
 3-21G
 ****
 48 0
 3-21G
 ****


