%nproc=1
%NoSave
%Mem=1900MB
#P OB98/GEN NMR

erre ene a

0 1
  C     -141.065      -3.522     103.796
  O     -141.953      -4.115     104.725
  H     -140.210      -4.189     103.654
  H     -140.700      -2.561     104.170
  H     -141.561      -3.381     102.831
  P     -143.254      -3.295     105.165
  C     -141.952      -2.391     107.212
  O     -142.737      -2.075     106.067
  C     -142.170      -1.357     108.315
  O     -141.288      -1.615     109.425
  C     -141.889       0.079     107.884
  O     -142.940       0.572     107.078
  C     -141.736       0.750     109.239
  O     -143.016       1.002     109.839
  C     -140.965      -0.338     110.029
  N     -139.522      -0.127     110.059
  C     -139.071       0.929     110.864
  O     -139.876       1.623     111.483
  N     -137.720       1.170     110.925
  C     -136.893       0.408     110.281
  N     -135.569       0.700     110.389
  C     -137.324      -0.734     109.454
  C     -138.639      -0.934     109.378
  O     -144.361      -4.095     105.784
  O     -143.731      -2.574     103.819
  H     -143.525       0.172     109.752
  H     -144.406      -3.111     103.362
  H     -136.597      -1.351     108.941
  H     -139.042      -1.752     108.788
  H     -141.323      -0.383     111.069
  H     -141.220       1.710     109.171
  H     -140.929       0.137     107.360
  H     -143.200      -1.462     108.680
  H     -135.318       1.482     110.985
  H     -140.905      -2.392     106.897
  H     -134.833       0.085     110.071
  H     -142.200      -3.394     107.583
  P     -142.702       1.758     106.026
  C     -143.574       3.494     107.713
  O     -142.480       3.084     106.906
  O     -143.739       1.880     104.960
  O     -141.235       1.471     105.458
  H     -141.256       0.735     104.796
  H     -143.309       4.382     108.249
  H     -143.816       2.717     108.408
  H     -144.422       3.692     107.091

 6  7  8  9  10  11  12  13  14  15  16  26  30  31  32  33  35 0
 6-311+G(2d,p)
 ****
 37  38 0
 6-311+G(2d,p)
 ****
 1  2  3  4  5  17  18  19  20  21  22  23  24  25 0
 3-21G
 ****
 27  28  29  34  36  39  40  41  42  43  44  45  46 0
 3-21G
 ****


