%nproc=1
%NoSave
%Mem=1900MB
#P OB98/GEN NMR

erre ene a

0 1
  C     1144.581    1001.657    -503.497
  O     1144.471    1002.922    -502.875
  H     1145.175    1000.998    -502.865
  H     1145.089    1001.753    -504.466
  H     1143.592    1001.221    -503.642
  P     1143.749    1004.108    -503.666
  C     1142.893    1005.039    -501.397
  O     1143.637    1005.299    -502.586
  C     1143.448    1005.842    -500.223
  O     1144.749    1005.363    -499.824
  C     1143.652    1007.340    -500.544
  O     1142.447    1008.081    -500.594
  C     1144.520    1007.734    -499.349
  O     1143.701    1007.858    -498.178
  C     1145.457    1006.491    -499.226
  N     1146.744    1006.680    -499.931
  C     1147.710    1007.406    -499.235
  O     1147.498    1007.867    -498.107
  N     1148.944    1007.650    -499.822
  C     1149.145    1007.205    -501.054
  N     1150.346    1007.536    -501.632
  C     1148.150    1006.412    -501.814
  C     1146.978    1006.195    -501.194
  O     1142.479    1003.760    -504.379
  O     1144.877    1004.691    -504.650
  H     1143.174    1008.656    -498.261
  H     1144.474    1005.432    -505.163
  H     1148.364    1006.090    -502.813
  H     1146.208    1005.658    -501.696
  H     1145.648    1006.246    -498.187
  H     1145.044    1008.689    -499.492
  H     1144.245    1007.449    -501.461
  H     1142.750    1005.715    -499.379
  H     1150.979    1008.084    -501.096
  H     1142.947    1003.961    -501.183
  H     1150.462    1007.463    -502.632
  H     1141.841    1005.306    -501.540
  P     1142.017    1008.700    -502.030
  C     1139.582    1007.850    -501.798
  O     1140.443    1008.959    -501.949
  O     1142.161    1007.462    -503.024
  O     1142.806    1009.914    -502.462
  H     1143.062    1007.462    -503.456
  H     1138.568    1008.188    -501.760
  H     1139.820    1007.335    -500.891
  H     1139.706    1007.186    -502.628

 6  7  8  9  10  11  12  13  14  15  16  26  30  31  32  33  35 0
 6-311+G(2d,p)
 ****
 37  38 0
 6-311+G(2d,p)
 ****
 1  2  3  4  5  17  18  19  20  21  22  23  24  25 0
 3-21G
 ****
 27  28  29  34  36  39  40  41  42  43  44  45  46 0
 3-21G
 ****


