%nproc=1
%NoSave
%Mem=1900MB
#P OB98/GEN NMR

erre ene a

0 1
  C      217.964    -521.056    -279.111
  O      218.912    -520.846    -280.165
  P      218.435    -520.272    -281.595
  C      220.546    -518.847    -281.921
  O      219.738    -519.889    -282.460
  C      221.852    -518.630    -282.673
  O      222.685    -519.822    -282.623
  C      221.697    -518.259    -284.154
  O      222.790    -517.392    -284.458
  C      221.857    -519.599    -284.848
  O      222.179    -519.477    -286.222
  C      222.947    -520.249    -283.977
  N      222.957    -521.705    -284.102
  C      223.349    -522.229    -285.333
  O      223.606    -521.477    -286.278
  N      223.399    -523.597    -285.487
  C      222.986    -524.370    -284.525
  N      223.029    -525.706    -284.739
  C      222.489    -523.852    -283.228
  C      222.522    -522.521    -283.088
  O      217.401    -519.195    -281.514
  O      217.859    -521.562    -282.352
  H      222.557    -520.321    -286.535
  H      217.152    -521.283    -282.965
  H      222.127    -524.530    -282.466
  H      222.173    -522.041    -282.176
  H      223.947    -519.867    -284.255
  H      220.924    -520.173    -284.766
  H      220.743    -517.785    -284.381
  H      222.414    -517.843    -282.149
  H      223.352    -526.026    -285.652
  H      220.764    -519.088    -280.871
  H      222.636    -526.380    -284.102
  H      219.963    -517.914    -281.918
  P      222.701    -515.805    -284.254
  C      224.909    -515.620    -282.963
  O      224.207    -515.262    -284.134
  O      221.801    -515.357    -283.162
  O      222.210    -515.236    -285.674
  H      221.877    -514.329    -285.556
  H      225.971    -515.389    -283.075
  H      224.801    -516.694    -282.753
  H      224.510    -515.052    -282.108
  H      218.469    -521.438    -278.248
  H      217.224    -521.759    -279.432
  H      217.491    -520.128    -278.866

 3  4  5  6  7  8  9  10  11  12  13  23  27  28  29  30  32 0
 6-311+G(2d,p)
 ****
 34  35 0
 6-311+G(2d,p)
 ****
 1  2  14  15  16  17  18  19  20  21  22  24  25  26 0
 3-21G
 ****
 31  33  36  37  38  39  40  41  42  43  44  45  46 0
 3-21G
 ****


