%nproc=1
%NoSave
%Mem=1900MB
#P OB98/GEN NMR

erre ene a

0 1
  C     -197.180    -263.132    -263.161
  O     -197.138    -261.930    -262.421
  H     -197.052    -263.970    -262.471
  H     -196.376    -263.161    -263.901
  H     -198.149    -263.237    -263.659
  P     -197.188    -260.541    -263.220
  C     -199.697    -260.711    -263.830
  O     -198.359    -260.678    -264.307
  C     -200.499    -259.520    -264.371
  O     -200.664    -259.675    -265.808
  C     -201.906    -259.390    -263.761
  O     -202.244    -257.998    -263.759
  C     -202.742    -260.142    -264.776
  O     -204.113    -259.885    -264.608
  C     -202.082    -259.675    -266.079
  N     -202.424    -260.518    -267.214
  C     -203.380    -260.007    -268.096
  O     -203.894    -258.908    -267.888
  N     -203.751    -260.767    -269.177
  C     -203.265    -261.960    -269.321
  N     -203.686    -262.667    -270.408
  C     -202.297    -262.559    -268.379
  C     -201.921    -261.789    -267.362
  O     -195.885    -260.053    -263.760
  O     -197.801    -259.507    -262.159
  H     -204.433    -260.229    -263.745
  H     -197.093    -258.928    -261.820
  H     -201.934    -263.565    -268.537
  H     -201.216    -262.142    -266.614
  H     -202.373    -258.640    -266.311
  H     -202.609    -261.225    -264.658
  H     -201.971    -259.797    -262.747
  H     -199.915    -258.604    -264.216
  H     -204.357    -262.221    -271.022
  H     -199.658    -260.673    -262.738
  H     -203.391    -263.610    -270.612
  H     -200.182    -261.646    -264.133
  P     -203.525    -257.415    -262.987
  C     -202.421    -256.619    -260.795
  O     -203.302    -257.557    -261.408
  O     -204.828    -257.960    -263.471
  O     -203.464    -255.827    -263.226
  H     -204.373    -255.470    -263.240
  H     -202.359    -256.821    -259.746
  H     -202.794    -255.628    -260.946
  H     -201.448    -256.704    -261.233

 6  7  8  9  10  11  12  13  14  15  16  26  30  31  32  33  35 0
 6-311+G(2d,p)
 ****
 37  38 0
 6-311+G(2d,p)
 ****
 1  2  3  4  5  17  18  19  20  21  22  23  24  25 0
 3-21G
 ****
 27  28  29  34  36  39  40  41  42  43  44  45  46 0
 3-21G
 ****


