%nproc=1
%NoSave
%Mem=1900MB
#P OB98/GEN NMR

erre ene a

0 1
  C      -41.114    -492.838    -898.600
  O      -41.869    -492.085    -897.670
  P      -41.417    -490.561    -897.400
  C      -42.646    -488.436    -896.530
  O      -42.764    -489.741    -897.110
  C      -44.022    -487.902    -896.180
  O      -44.786    -487.594    -897.370
  C      -44.896    -488.880    -895.400
  O      -44.585    -488.906    -894.010
  C      -46.291    -488.285    -895.590
  O      -46.490    -487.185    -894.710
  C      -46.193    -487.788    -897.060
  N      -50.466    -490.064    -898.540
  C      -50.284    -489.008    -897.670
  N      -51.374    -488.550    -897.040
  N      -49.117    -488.467    -897.400
  C      -48.094    -489.039    -898.090
  C      -48.178    -490.096    -899.010
  C      -49.449    -490.681    -899.280
  O      -49.692    -491.647    -900.000
  N      -46.925    -490.400    -899.510
  C      -46.104    -489.535    -898.900
  N      -46.780    -488.750    -898.020
  O      -40.974    -490.041    -898.850
  O      -40.321    -490.397    -896.390
  H      -46.633    -487.556    -893.820
  H      -40.430    -489.246    -898.760
  H      -51.373    -490.434    -898.690
  H      -45.048    -489.482    -899.080
  H      -46.705    -486.816    -897.200
  H      -47.094    -488.999    -895.420
  H      -52.312    -488.963    -897.150
  H      -44.868    -489.892    -895.820
  H      -51.278    -487.813    -896.330
  H      -43.904    -486.961    -895.590
  H      -42.157    -487.749    -897.240
  H      -42.019    -488.496    -895.640
  P      -45.386    -489.949    -893.100
  C      -44.721    -491.315    -890.980
  O      -44.283    -490.532    -892.050
  O      -45.634    -491.187    -894.100
  O      -46.643    -489.435    -892.520
  H      -46.407    -491.690    -893.820
  H      -43.839    -491.814    -890.530
  H      -45.449    -492.077    -891.310
  H      -45.172    -490.677    -890.210
  H      -41.524    -493.823    -898.678
  H      -40.099    -492.900    -898.268
  H      -41.148    -492.360    -899.557

 3  4  5  6  7  8  9  10  11  12  23  26  30  31 0
 6-311+G(2d,p)
 ****
 33  35  36  37  38 0
 6-311+G(2d,p)
 ****
 1  2  13  14  15  16  17  18  19  20  21  22  24  25 0
 3-21G
 ****
 27  28  29  32  34  39  40  41  42  43  44  45  46  47  48  49 0
 3-21G
 ****


