%nproc=1
%NoSave
%Mem=1900MB
#P OB98/GEN NMR

erre ene a

0 1
  C       31.204     232.698     -50.888
  O       31.112     231.572     -50.033
  P       32.471     231.042     -49.358
  C       34.119     229.118     -49.935
  O       33.136     230.030     -50.412
  C       35.018     228.627     -51.071
  O       35.619     229.771     -51.723
  C       36.143     227.695     -50.618
  O       36.323     226.701     -51.628
  C       37.362     228.598     -50.593
  O       38.571     227.857     -50.739
  C       37.045     229.560     -51.750
  N       37.774     230.818     -51.636
  C       38.936     230.946     -52.404
  O       39.342     229.995     -53.069
  N       39.634     232.127     -52.356
  C       39.266     233.058     -51.532
  N       39.986     234.211     -51.523
  C       38.116     232.914     -50.615
  C       37.413     231.791     -50.735
  O       31.940     230.074     -48.201
  O       33.364     232.118     -48.833
  H       38.517     227.346     -51.577
  H       32.547     230.082     -47.436
  H       37.873     233.706     -49.921
  H       36.540     231.608     -50.120
  H       37.295     229.098     -52.713
  H       37.403     229.143     -49.642
  H       35.935     227.214     -49.657
  H       34.386     228.124     -51.814
  H       40.778     234.279     -52.150
  H       33.617     228.251     -49.497
  H       39.773     234.989     -50.915
  H       34.712     229.600     -49.151
  P       36.923     225.284     -51.179
  C       39.256     224.457     -50.496
  O       38.455     225.580     -50.809
  O       37.072     224.539     -52.593
  O       36.140     224.455     -50.214
  H       37.375     223.625     -52.452
  H       40.294     224.784     -50.400
  H       39.193     223.708     -51.286
  H       38.933     224.026     -49.542
  H       30.232     232.940     -51.265
  H       31.857     232.473     -51.705
  H       31.592     233.531     -50.340

 3  4  5  6  7  8  9  10  11  12  13  21  23  27  28  29  30  32 0
 6-311+G(2d,p)
 ****
 34  35 0
 6-311+G(2d,p)
 ****
 1  2  14  15  16  17  18  19  20  22  24  25  26 0
 3-21G
 ****
 31  33  36  37  38  39  40  41  42  43  44  45  46 0
 3-21G
 ****


