%nproc=1
%NoSave
%Mem=1900MB
#P OB98/GEN NMR

erre ene a

0 1
  C      116.885     -43.892     -28.583
  O      117.207     -43.705     -27.212
  P      116.062     -43.116     -26.252
  C      115.109     -40.759     -25.779
  O      116.178     -41.517     -26.329
  C      114.971     -39.415     -26.490
  O      114.970     -39.642     -27.927
  C      113.685     -38.644     -26.144
  O      114.004     -37.257     -25.947
  C      112.854     -38.748     -27.414
  O      111.930     -37.674     -27.540
  C      113.962     -38.766     -28.471
  N      110.588     -38.087     -32.175
  C      110.883     -37.280     -31.088
  N      110.127     -36.169     -30.940
  N      111.826     -37.544     -30.219
  C      112.519     -38.673     -30.512
  C      112.332     -39.546     -31.560
  C      111.243     -39.275     -32.478
  O      110.877     -39.992     -33.407
  N      113.244     -40.570     -31.528
  C      113.983     -40.322     -30.461
  N      113.552     -39.206     -29.784
  O      116.614     -43.470     -24.790
  O      114.699     -43.679     -26.467
  H      112.455     -36.859     -27.663
  H      115.944     -43.993     -24.303
  H      109.841     -37.844     -32.801
  H      114.815     -40.933     -30.126
  H      114.401     -37.761     -28.576
  H      112.297     -39.693     -27.402
  H      109.410     -35.886     -31.592
  H      113.155     -39.027     -25.268
  H      110.342     -35.557     -30.166
  H      115.860     -38.808     -26.263
  H      115.302     -40.582     -24.716
  H      114.183     -41.334     -25.879
  P      112.845     -36.353     -25.302
  C      110.300     -36.196     -25.862
  O      111.617     -36.416     -26.332
  O      113.403     -34.860     -25.465
  O      112.529     -36.695     -23.882
  H      113.003     -34.271     -24.798
  H      110.290     -35.831     -24.825
  H      109.742     -37.131     -25.913
  H      109.815     -35.450     -26.499
  H      117.735     -44.287     -29.098
  H      116.610     -42.953     -29.016
  H      116.067     -44.577     -28.667

 3  4  5  6  7  8  9  10  11  12  23  26  30  31  33  0
 6-311+G(2d,p)
 ****
 35  36  37  38 0
 6-311+G(2d,p)
 ****
 1  2  13  14  15  16  17  18  19  20  21  22  24  25  27  28  29 0
 3-21G
 ****
 32  34  39  40  41  42  43  44  45  46  47  48  49 0
 3-21G
 ****


