%nproc=1
%NoSave
%Mem=1900MB
#P OB98/GEN NMR

erre ene a

0 1
  C     -261.752     155.163     107.355
  O     -261.772     155.209     105.945
  H     -261.474     156.149     107.734
  H     -261.008     154.433     107.689
  H     -262.732     154.897     107.757
  P     -262.487     154.021     105.144
  C     -260.356     152.714     104.499
  O     -261.545     152.728     105.274
  C     -260.158     151.356     103.815
  O     -260.261     150.297     104.800
  C     -261.263     151.108     102.786
  O     -260.826     150.270     101.717
  C     -262.324     150.375     103.594
  O     -263.215     149.614     102.787
  C     -261.447     149.532     104.523
  N     -264.744     146.434     106.874
  C     -264.453     146.542     105.529
  N     -265.149     145.735     104.698
  N     -263.577     147.383     105.040
  C     -263.010     148.178     105.981
  C     -263.234     148.182     107.339
  C     -264.183     147.224     107.870
  O     -264.492     147.100     109.054
  N     -262.490     149.150     107.969
  C     -261.822     149.736     106.993
  N     -262.092     149.171     105.767
  O     -262.299     154.432     103.606
  O     -263.929     153.790     105.477
  H     -262.675     149.021     102.230
  H     -262.994     154.027     103.057
  H     -265.420     145.765     107.199
  H     -261.132     150.560     107.114
  H     -261.143     148.602     104.027
  H     -262.922     151.118     104.131
  H     -265.954     145.211     105.003
  H     -261.652     152.043     102.367
  H     -265.169     146.003     103.707
  H     -259.154     151.294     103.381
  H     -259.522     152.914     105.182
  H     -260.377     153.520     103.761
  P     -260.161     150.980     100.444
  C     -262.619     151.629      99.792
  O     -261.248     151.982      99.813
  O     -260.047     149.798      99.370
  O     -258.837     151.611     100.727
  H     -259.120     149.500      99.297
  H     -263.183     152.416      99.337
  H     -262.963     151.477     100.794
  H     -262.747     150.727      99.230

 6  7  8  9  10  11  12  13  14  15  26  29  33  34 0
 6-311+G(2d,p)
 ****
 36  38  39  40  41 0
 6-311+G(2d,p)
 ****
 1  2  3  4  5  16  17  18  19  20  21  22  23  24  25 0
 3-21G
 ****
 27  28  30  31  32  35  37  42  43  44  45  46  47 0
 3-21G
 ****
 48  49 0
 3-21G
 ****


