%nproc=1
%NoSave
%Mem=1900MB
#P OB98/GEN NMR

erre ene a

0 1
  C     -919.195     577.281    1122.567
  O     -920.195     576.312    1122.823
  P     -920.746     575.400    1121.616
  C     -922.035     573.170    1121.513
  O     -921.225     574.030    1122.307
  C     -922.410     571.897    1122.315
  O     -921.237     571.103    1122.568
  C     -923.049     572.157    1123.672
  O     -924.411     572.550    1123.519
  C     -922.841     570.832    1124.367
  O     -923.843     569.900    1123.991
  C     -921.452     570.397    1123.808
  N     -920.377     570.625    1124.771
  C     -919.924     569.492    1125.467
  O     -920.469     568.393    1125.281
  N     -918.922     569.638    1126.402
  C     -918.444     570.804    1126.637
  N     -917.435     570.892    1127.568
  C     -918.885     572.029    1125.955
  C     -919.848     571.845    1125.060
  O     -919.826     575.243    1120.460
  O     -922.132     576.120    1121.241
  H     -923.676     569.657    1123.048
  H     -921.986     576.952    1120.746
  H     -918.440     572.993    1126.181
  H     -920.264     572.710    1124.478
  H     -921.462     569.341    1123.565
  H     -922.846     570.931    1125.469
  H     -922.484     572.952    1124.214
  H     -923.090     571.291    1121.681
  H     -917.183     570.035    1128.035
  H     -921.461     572.880    1120.637
  H     -917.006     571.765    1127.861
  H     -922.950     573.703    1121.208
  P     -925.034     573.652    1124.501
  C     -927.274     574.917    1124.689
  O     -926.404     574.160    1123.855
  O     -924.110     574.739    1124.934
  O     -925.546     572.783    1125.749
  H     -925.275     573.256    1126.582
  H     -927.988     575.449    1124.054
  H     -926.729     575.613    1125.302
  H     -927.828     574.223    1125.333
  H     -918.951     577.790    1123.476
  H     -919.558     577.987    1121.849
  H     -918.321     576.798    1122.182

 3  4  5  6  7  8  9  10  11  12  13  23  27  28  29  30  32 0
 6-311+G(2d,p)
 ****
 34  35 0
 6-311+G(2d,p)
 ****
 1  2  14  15  16  17  18  19  20  21  22  24  25  26 0
 3-21G
 ****
 31  33  36  37  38  39  40  41  42  43  44  45  46 0
 3-21G
 ****


