%nproc=1
%NoSave
%Mem=1900MB
#P OB98/GEN NMR

erre ene a

0 1
  C     -207.142    -452.407     206.394
  O     -205.736    -452.287     206.659
  P     -205.191    -450.851     207.109
  C     -205.446    -451.194     209.694
  O     -205.896    -450.539     208.516
  C     -205.419    -450.208     210.864
  O     -206.708    -449.572     211.023
  C     -205.117    -450.839     212.212
  O     -203.733    -451.166     212.323
  C     -205.597    -449.750     213.164
  O     -204.604    -448.718     213.281
  C     -206.834    -449.207     212.416
  N     -208.094    -449.675     212.984
  C     -208.706    -448.809     213.901
  O     -208.217    -447.736     214.239
  N     -209.885    -449.247     214.437
  C     -210.493    -450.447     214.172
  O     -211.565    -450.777     214.669
  C     -209.779    -451.328     213.235
  C     -208.636    -450.910     212.694
  O     -205.936    -449.895     206.070
  O     -203.700    -450.763     207.097
  H     -206.831    -450.203     205.850
  H     -204.712    -448.139     212.495
  H     -210.347    -448.637     215.091
  H     -210.218    -452.295     213.023
  H     -208.087    -451.551     212.012
  H     -206.839    -448.110     212.444
  H     -205.791    -450.127     214.163
  H     -205.723    -451.747     212.345
  H     -204.683    -449.429     210.629
  H     -204.437    -451.587     209.540
  H     -206.101    -452.046     209.903
  P     -203.341    -452.263     213.433
  C     -204.449    -454.313     212.214
  O     -204.432    -453.430     213.323
  O     -203.728    -451.505     214.785
  O     -201.913    -452.719     213.354
  H     -204.574    -451.048     214.736
  H     -205.007    -455.197     212.482
  H     -203.434    -454.588     211.919
  H     -204.947    -453.813     211.368
  H     -207.366    -453.413     206.105
  H     -207.414    -451.740     205.603
  H     -207.694    -452.158     207.276

 3  4  5  6  7  8  9  10  11  12  13  24  28  29  30  31  32 0
 6-311+G(2d,p)
 ****
 33  34 0
 6-311+G(2d,p)
 ****
 1  2  14  15  16  17  18  19  20  21  22  23  25  26  27 0
 3-21G
 ****
 35  36  37  38  39  40  41  42  43  44  45 0
 3-21G
 ****


