%nproc=1
%NoSave
%Mem=1900MB
#P OB98/GEN NMR

erre ene a

0 1
  C     -352.236    -112.963     337.999
  O     -351.768    -112.455     339.240
  P     -350.689    -111.270     339.291
  C     -352.559    -109.509     339.445
  O     -351.421    -109.957     338.718
  C     -352.236    -108.224     340.206
  O     -351.739    -107.239     339.268
  C     -353.452    -107.615     340.907
  O     -353.024    -107.027     342.140
  C     -353.904    -106.490     339.976
  O     -354.604    -105.466     340.701
  C     -352.561    -106.057     339.363
  N     -353.389    -101.758     336.675
  C     -353.264    -101.973     338.003
  N     -353.067    -103.146     338.646
  C     -352.956    -104.161     337.773
  C     -353.058    -104.089     336.391
  C     -353.294    -102.819     335.837
  N     -353.409    -102.593     334.482
  N     -352.919    -105.341     335.824
  C     -352.714    -106.151     336.844
  N     -352.717    -105.480     338.040
  O     -349.380    -111.582     338.647
  O     -350.524    -110.943     340.846
  H     -355.349    -105.904     341.160
  H     -349.594    -110.742     341.050
  H     -353.327    -101.094     338.633
  H     -352.562    -107.220     336.774
  H     -352.044    -105.333     340.004
  H     -354.577    -106.898     339.214
  H     -354.251    -108.342     341.090
  H     -351.441    -108.431     340.930
  H     -352.842    -110.293     340.159
  H     -353.455    -101.634     334.165
  H     -353.164    -103.354     333.847
  H     -353.395    -109.352     338.751
  P     -354.088    -107.104     343.358
  C     -352.469    -108.364     344.968
  O     -353.649    -108.399     344.198
  O     -355.504    -107.049     342.870
  O     -353.629    -105.851     344.248
  H     -352.684    -105.631     344.093
  H     -352.324    -109.352     345.432
  H     -352.557    -107.620     345.762
  H     -351.605    -108.142     344.333
  H     -352.946    -113.743     338.178
  H     -351.411    -113.352     337.439
  H     -352.703    -112.176     337.445

 3  4  5  6  7  8  9  10  11  12  22  25  29  30  31  32 0
 6-311+G(2d,p)
 ****
 33  36  37 0
 6-311+G(2d,p)
 ****
 1  2  13  14  15  16  17  18  19  20  21  23  24  26 0
 3-21G
 ****
 27  28  34  35  38  39  40  41  42  43  44  45  46  47  48 0
 3-21G
 ****


