%nproc=1
%NoSave
%Mem=1900MB
#P OB98/GEN NMR

erre ene a

0 1
  C      231.912      81.099    -107.495
  O      230.697      80.777    -106.850
  H      231.890      82.154    -107.779
  H      232.029      80.495    -108.398
  H      232.757      80.931    -106.821
  P      230.523      79.267    -106.321
  C      231.116      79.656    -103.814
  O      230.094      79.416    -104.776
  C      230.506      79.825    -102.419
  O      229.839      81.110    -102.343
  C      229.480      78.741    -102.069
  O      229.684      78.311    -100.720
  C      228.138      79.441    -102.216
  O      227.128      78.845    -101.402
  C      228.496      80.890    -101.868
  N      227.561      81.844    -102.470
  C      226.405      82.139    -101.739
  O      226.207      81.599    -100.647
  N      225.480      82.993    -102.281
  C      225.661      83.464    -103.478
  N      224.693      84.290    -103.968
  C      226.842      83.143    -104.304
  C      227.744      82.338    -103.744
  O      232.031      78.739    -106.245
  O      229.619      78.406    -107.139
  H      227.511      78.698    -100.506
  H      232.065      77.758    -106.138
  H      226.938      83.546    -105.302
  H      228.642      82.044    -104.277
  H      228.497      81.040    -100.777
  H      227.810      79.378    -103.261
  H      229.537      77.875    -102.728
  H      231.322      79.850    -101.685
  H      223.895      84.481    -103.378
  H      231.658      80.563    -104.091
  H      224.715      84.693    -104.897
  H      231.811      78.809    -103.813
  P      230.595      77.003    -100.529
  C      232.896      78.098    -100.033
  O      231.782      77.385     -99.513
  O      231.334      76.852    -101.942
  O      229.821      75.781    -100.160
  H      230.885      76.181    -102.490
  H      233.600      78.281     -99.248
  H      232.564      79.031    -100.439
  H      233.362      77.519    -100.803

 6  7  8  9  10  11  12  13  14  15  16  26  30  31  32  33  35 0
 6-311+G(2d,p)
 ****
 37  38 0
 6-311+G(2d,p)
 ****
 1  2  3  4  5  17  18  19  20  21  22  23  24  25 0
 3-21G
 ****
 27  28  29  34  36  39  40  41  42  43  44  45  46 0
 3-21G
 ****


