%nproc=1
%NoSave
%Mem=1900MB
#P OB98/GEN NMR

erre ene a

0 1
  C     -973.317    -192.257    -686.876
  O     -972.170    -193.116    -686.918
  P     -970.802    -192.782    -686.150
  C     -970.079    -195.056    -685.180
  O     -970.638    -193.768    -684.903
  C     -971.121    -196.169    -684.959
  O     -972.240    -195.999    -685.852
  C     -970.607    -197.580    -685.240
  O     -969.780    -198.036    -684.174
  C     -971.917    -198.346    -685.406
  O     -972.472    -198.707    -684.139
  C     -972.802    -197.295    -686.113
  N     -972.911    -197.545    -687.545
  C     -974.131    -198.068    -687.994
  O     -975.022    -198.361    -687.186
  N     -974.305    -198.275    -689.339
  C     -973.323    -198.045    -690.160
  N     -973.549    -198.258    -691.488
  C     -972.001    -197.574    -689.717
  C     -971.867    -197.341    -688.412
  O     -970.637    -191.338    -685.807
  O     -969.640    -193.246    -687.156
  H     -971.769    -199.149    -683.639
  H     -968.857    -192.679    -687.020
  H     -971.195    -197.426    -690.426
  H     -970.926    -196.987    -687.999
  H     -973.812    -197.287    -685.675
  H     -971.787    -199.266    -685.978
  H     -970.051    -197.599    -686.184
  H     -971.485    -196.095    -683.931
  H     -974.476    -198.576    -691.752
  H     -969.235    -195.217    -684.494
  H     -972.856    -198.112    -692.208
  H     -969.717    -195.074    -686.212
  P     -968.310    -197.440    -683.999
  C     -968.336    -196.909    -681.490
  O     -968.352    -196.374    -682.800
  O     -967.649    -196.953    -685.248
  O     -967.483    -198.659    -683.354
  H     -966.550    -198.600    -683.663
  H     -967.972    -196.135    -680.802
  H     -967.669    -197.774    -681.425
  H     -969.348    -197.201    -681.196
  H     -974.105    -192.685    -687.460
  H     -973.059    -191.298    -687.274
  H     -973.643    -192.147    -685.863

 3  4  5  6  7  8  9  10  11  12  13  23  27  28  29  30  32 0
 6-311+G(2d,p)
 ****
 34  35 0
 6-311+G(2d,p)
 ****
 1  2  14  15  16  17  18  19  20  21  22  24  25  26 0
 3-21G
 ****
 31  33  36  37  38  39  40  41  42  43  44  45  46 0
 3-21G
 ****


