%nproc=1
%NoSave
%Mem=1900MB
#P OB98/GEN NMR

erre ene a

0 1
  C      -58.090     -97.669    -542.667
  O      -59.114     -97.756    -541.691
  P      -58.971     -98.759    -540.446
  C      -57.170     -97.271    -539.369
  O      -57.483     -98.566    -539.871
  C      -56.859     -97.333    -537.878
  O      -58.067     -97.668    -537.158
  C      -55.805     -98.379    -537.520
  O      -54.995     -97.888    -536.444
  C      -56.615     -99.564    -537.005
  O      -55.843    -100.371    -536.104
  C      -57.814     -98.852    -536.372
  N      -61.333    -101.200    -533.466
  C      -60.280    -100.424    -533.138
  N      -59.371     -99.851    -533.965
  C      -59.670    -100.107    -535.249
  C      -60.718    -100.885    -535.726
  C      -61.578    -101.448    -534.773
  N      -62.666    -102.224    -535.104
  N      -60.688    -100.938    -537.110
  C      -59.653    -100.203    -537.455
  N      -59.012     -99.669    -536.365
  O      -59.344    -100.174    -540.725
  O      -59.886     -98.115    -539.302
  H      -56.377    -101.167    -535.900
  H      -60.346     -98.816    -538.803
  H      -60.143    -100.239    -532.080
  H      -59.321    -100.029    -538.472
  H      -57.601     -98.534    -535.341
  H      -56.917    -100.194    -537.845
  H      -55.170     -98.659    -538.371
  H      -56.535     -96.340    -537.542
  H      -58.036     -96.618    -539.526
  H      -63.291    -102.487    -534.364
  H      -62.950    -102.263    -536.076
  H      -56.320     -96.857    -539.929
  P      -53.422     -98.200    -536.554
  C      -52.859     -96.027    -537.873
  O      -52.946     -97.432    -537.880
  O      -53.128     -99.656    -536.463
  O      -52.857     -97.324    -535.334
  H      -53.450     -96.577    -535.116
  H      -52.554     -95.688    -538.870
  H      -52.106     -95.697    -537.147
  H      -53.829     -95.577    -537.629
  H      -58.367     -96.952    -543.411
  H      -57.953     -98.625    -543.127
  H      -57.177     -97.364    -542.200

 3  4  5  6  7  8  9  10  11  12  22  25  29  30  31  32 0
 6-311+G(2d,p)
 ****
 33  36  37 0
 6-311+G(2d,p)
 ****
 1  2  13  14  15  16  17  18  19  20  21  23  24  26 0
 3-21G
 ****
 27  28  34  35  38  39  40  41  42  43  44  45  46  47  48 0
 3-21G
 ****


