%nproc=1
%NoSave
%Mem=1900MB
#P OB98/GEN NMR

erre ene a

0 1
  C     -159.338      89.912    -402.537
  O     -160.367      90.633    -403.190
  H     -158.444      90.541    -402.499
  H     -159.097      88.993    -403.083
  H     -159.639      89.670    -401.516
  P     -161.701      89.839    -403.602
  C     -163.302      91.855    -403.374
  O     -162.666      90.941    -404.268
  C     -163.414      93.246    -404.013
  O     -162.116      93.879    -404.061
  C     -163.904      93.224    -405.453
  O     -165.261      92.844    -405.594
  C     -163.443      94.575    -405.974
  O     -164.360      95.631    -405.712
  C     -162.132      94.795    -405.170
  N     -160.944      94.669    -406.004
  C     -160.723      95.704    -406.910
  O     -161.474      96.674    -407.036
  N     -159.617      95.578    -407.703
  C     -158.760      94.509    -407.713
  O     -157.802      94.431    -408.484
  C     -159.057      93.436    -406.756
  C     -160.126      93.561    -405.955
  O     -162.353      89.045    -402.505
  O     -161.244      88.950    -404.851
  H     -163.876      96.471    -405.839
  H     -161.892      88.225    -405.029
  H     -159.425      96.318    -408.358
  H     -158.408      92.568    -406.739
  H     -160.374      92.781    -405.239
  H     -162.127      95.811    -404.737
  H     -163.286      94.553    -407.059
  H     -163.322      92.465    -405.991
  H     -164.068      93.860    -403.379
  H     -162.682      91.925    -402.473
  H     -164.293      91.482    -403.102
  P     -165.872      92.267    -406.952
  C     -168.005      91.274    -405.854
  O     -167.471      92.194    -406.795
  O     -165.156      91.106    -407.573
  O     -165.685      93.525    -407.948
  H     -165.497      93.173    -408.842
  H     -169.073      91.337    -405.860
  H     -167.639      91.511    -404.877
  H     -167.705      90.281    -406.116

 6  7  8  9  10  11  12  13  14  15  16  26  31  32  33  34  35 0
 6-311+G(2d,p)
 ****
 36  37 0
 6-311+G(2d,p)
 ****
 1  2  3  4  5  17  18  19  20  21  22  23  24  25 0
 3-21G
 ****
 27  28  29  30  38  39  40  41  42  43  44  45 0
 3-21G
 ****


