%nproc=1
%NoSave
%Mem=1900MB
#P OB98/GEN NMR

erre ene a

0 1
  C     -490.178     182.117     588.586
  O     -491.262     181.174     588.446
  P     -491.713     180.790     586.955
  C     -494.301     180.395     587.007
  O     -492.999     179.853     587.129
  C     -495.350     179.304     587.262
  O     -495.395     178.375     586.149
  C     -495.088     178.468     588.488
  O     -495.384     179.171     589.688
  C     -495.980     177.265     588.218
  O     -497.348     177.569     588.572
  C     -495.860     177.108     586.682
  N     -494.986     176.012     586.289
  C     -495.346     174.759     586.757
  O     -496.328     174.559     587.475
  N     -494.534     173.723     586.366
  C     -493.400     173.812     585.616
  O     -492.716     172.867     585.300
  C     -493.038     175.187     585.199
  C     -493.838     176.203     585.542
  O     -490.533     179.797     586.530
  O     -491.885     181.973     586.070
  H     -490.210     179.247     587.268
  H     -497.326     177.939     589.480
  H     -494.791     172.795     586.686
  H     -492.136     175.309     584.623
  H     -493.578     177.225     585.245
  H     -496.843     176.944     586.233
  H     -495.686     176.378     588.789
  H     -494.033     178.145     588.506
  H     -496.330     179.802     587.341
  H     -494.443     180.807     586.004
  H     -494.402     181.222     587.714
  P     -494.153     179.856     590.458
  C     -494.654     179.674     593.028
  O     -494.741     180.438     591.823
  O     -493.916     181.168     589.567
  O     -492.956     178.976     590.595
  H     -494.751     181.611     589.312
  H     -494.778     180.349     593.873
  H     -493.695     179.172     593.097
  H     -495.463     178.943     593.043
  H     -489.981     182.282     589.625
  H     -490.448     183.043     588.122
  H     -489.301     181.725     588.115

 3  4  5  6  7  8  9  10  11  12  13  24  28  29  30  31  32 0
 6-311+G(2d,p)
 ****
 33  34 0
 6-311+G(2d,p)
 ****
 1  2  14  15  16  17  18  19  20  21  22  23  25  26  27 0
 3-21G
 ****
 35  36  37  38  39  40  41  42  43  44  45 0
 3-21G
 ****


