%nproc=1
%NoSave
%Mem=1900MB
#P OB98/GEN NMR

erre ene a

0 1
  C      -11.988    -389.560    -196.724
  O      -12.917    -390.630    -196.645
  P      -13.103    -391.482    -195.293
  C      -12.699    -393.973    -194.714
  O      -12.392    -392.890    -195.579
  C      -11.931    -395.225    -195.135
  O      -12.555    -395.772    -196.328
  C      -10.450    -394.981    -195.455
  O       -9.729    -396.144    -195.044
  C      -10.446    -394.860    -196.971
  O       -9.169    -395.121    -197.536
  C      -11.533    -395.878    -197.343
  N      -12.084    -395.646    -198.672
  C      -12.083    -396.712    -199.574
  O      -11.609    -397.803    -199.258
  N      -12.621    -396.520    -200.818
  C      -13.047    -395.342    -201.167
  N      -13.627    -395.219    -202.394
  C      -12.966    -394.166    -200.284
  C      -12.503    -394.391    -199.059
  O      -14.508    -391.578    -194.803
  O      -12.091    -390.803    -194.257
  H       -8.511    -394.586    -197.061
  H      -12.482    -390.023    -193.792
  H      -13.308    -393.201    -200.630
  H      -12.428    -393.594    -198.336
  H      -11.133    -396.894    -197.280
  H      -10.741    -393.844    -197.257
  H      -10.046    -394.102    -194.945
  H      -12.033    -395.975    -194.340
  H      -13.818    -396.082    -202.894
  H      -13.771    -394.175    -194.784
  H      -14.255    -394.450    -202.599
  H      -12.469    -393.696    -193.681
  P       -8.396    -395.945    -194.168
  C       -5.879    -395.990    -194.801
  O       -7.190    -395.616    -195.168
  O       -8.066    -397.455    -193.730
  O       -8.522    -395.083    -192.954
  H       -7.552    -397.438    -192.900
  H       -5.194    -395.697    -195.599
  H       -5.811    -397.074    -194.663
  H       -5.581    -395.479    -193.879
  H      -12.022    -389.130    -197.703
  H      -11.002    -389.928    -196.530
  H      -12.240    -388.815    -195.998

 3  4  5  6  7  8  9  10  11  12  13  23  27  28  29  30  32 0
 6-311+G(2d,p)
 ****
 34  35 0
 6-311+G(2d,p)
 ****
 1  2  14  15  16  17  18  19  20  21  22  24  25  26 0
 3-21G
 ****
 31  33  36  37  38  39  40  41  42  43  44  45  46 0
 3-21G
 ****


