%nproc=1
%NoSave
%Mem=1900MB
#P OB98/GEN NMR

erre ene a

0 1
  C      432.945    -367.914      30.288
  O      432.612    -366.594      29.893
  H      433.432    -367.875      31.267
  H      433.636    -368.358      29.567
  H      432.041    -368.522      30.367
  P      431.868    -366.437      28.484
  C      433.554    -364.950      27.165
  O      432.338    -365.021      27.889
  C      434.247    -363.601      27.408
  O      434.757    -363.585      28.774
  C      435.449    -363.339      26.483
  O      435.568    -361.915      26.310
  C      436.606    -363.850      27.318
  O      437.837    -363.414      26.803
  C      436.180    -363.320      28.687
  N      436.643    -363.408      33.787
  C      435.805    -362.731      32.968
  N      435.732    -362.773      31.621
  C      436.635    -363.627      31.120
  C      437.550    -364.394      31.824
  C      437.542    -364.262      33.224
  N      438.395    -364.941      34.057
  N      438.316    -365.157      30.957
  C      437.874    -364.862      29.756
  N      436.864    -363.936      29.804
  O      430.341    -366.192      28.899
  O      432.018    -367.591      27.547
  H      438.578    -363.662      27.402
  H      429.851    -367.035      28.876
  H      435.100    -362.069      33.460
  H      438.243    -365.267      28.825
  H      436.323    -362.234      28.765
  H      436.633    -364.945      27.320
  H      435.351    -363.816      25.502
  H      433.503    -362.802      27.335
  H      433.330    -365.065      26.096
  H      434.215    -365.761      27.478
  H      438.334    -364.777      35.050
  H      439.084    -365.564      33.651
  P      435.765    -361.316      24.824
  C      438.207    -360.371      24.725
  O      436.819    -360.113      24.892
  O      434.383    -360.539      24.596
  O      435.989    -362.327      23.749
  H      434.173    -360.515      23.646
  H      438.752    -359.453      24.801
  H      438.375    -360.807      23.762
  H      438.538    -361.047      25.486

 6  7  8  9  10  11  12  13  14  15  25  28  32  33  34  35 0
 6-311+G(2d,p)
 ****
 36  37  40 0
 6-311+G(2d,p)
 ****
 1  2  3  4  5  16  17  18  19  20  21  22  23  24 0
 3-21G
 ****
 26  27  29  30  31  38  39 41  42  43  44  45  46  47  48 0
 3-21G
 ****


