%nproc=1
%NoSave
%Mem=1900MB
#P OB98/GEN NMR

erre ene a

0 1
  C      759.368     634.487     309.873
  O      760.121     634.811     308.723
  P      761.698     635.022     308.895
  C      761.460     636.895     307.077
  O      762.041     636.484     308.318
  C      761.276     638.408     307.062
  O      760.361     638.803     308.103
  C      762.538     639.216     307.303
  O      763.380     639.236     306.147
  C      761.953     640.568     307.686
  O      761.540     641.273     306.512
  C      760.719     640.157     308.504
  N      759.647     642.491     312.949
  C      759.258     642.743     311.682
  N      759.586     642.093     310.548
  C      760.436     641.077     310.840
  C      760.953     640.727     312.065
  C      760.504     641.464     313.166
  N      760.906     641.211     314.473
  N      761.785     639.639     311.967
  C      761.803     639.338     310.677
  N      760.987     640.182     309.945
  O      762.323     634.038     307.770
  O      762.247     634.720     310.263
  H      762.357     641.643     306.111
  H      763.172     633.648     308.075
  H      758.542     643.577     311.550
  H      762.354     638.536     310.211
  H      759.855     640.799     308.331
  H      762.663     641.209     308.218
  H      763.102     638.790     308.178
  H      760.820     638.686     306.094
  H      760.494     636.401     306.960
  H      760.675     641.892     315.166
  H      761.648     640.532     314.608
  H      762.111     636.564     306.270
  P      764.442     638.046     305.972
  C      765.606     639.854     304.560
  O      765.776     638.798     305.504
  O      763.937     637.348     304.619
  O      764.583     637.140     307.167
  H      763.770     637.995     303.915
  H      766.587     640.325     304.362
  H      764.927     640.624     304.962
  H      765.217     639.466     303.629
  H      758.338     634.377     309.606
  H      759.467     635.269     310.596
  H      759.728     633.569     310.288

 3  4  5  6  7  8  9  10  11  12  22  25  29  30  31  32 0
 6-311+G(2d,p)
 ****
 33  36  37 0
 6-311+G(2d,p)
 ****
 1  2  13  14  15  16  17  18  19  20  21  23  24  26 0
 3-21G
 ****
 27  28  34  35  38  39  40  41  42  43  44  45  46  47  48 0
 3-21G
 ****


