%nproc=1
%NoSave
%Mem=1900MB
#P OB98/GEN NMR

erre ene a

0 1
  C       99.232      10.217    -177.521
  O       99.126      11.162    -178.573
  P       98.486      12.593    -178.226
  C       96.112      13.602    -178.527
  O       96.894      12.432    -178.329
  C       94.944      13.323    -179.476
  O       95.444      13.303    -180.843
  C       94.227      11.986    -179.229
  O       92.843      12.200    -179.528
  C       94.879      11.081    -180.259
  O       94.155       9.893    -180.525
  C       95.014      12.053    -181.429
  N       95.525       9.719    -185.947
  C       94.432      10.083    -185.241
  N       94.373      10.710    -184.047
  C       95.609      10.970    -183.588
  C       96.815      10.642    -184.185
  C       96.744       9.986    -185.425
  N       97.863       9.607    -186.139
  N       97.876      11.045    -183.402
  C       97.321      11.607    -182.348
  N       95.956      11.603    -182.426
  O       98.849      13.472    -179.512
  O       98.985      13.218    -176.961
  H       94.519       9.449    -181.316
  H       99.085      14.385    -179.261
  H       93.475       9.841    -185.696
  H       97.857      12.015    -181.502
  H       94.054      12.230    -181.928
  H       95.867      10.780    -179.893
  H       94.320      11.628    -178.199
  H       94.233      14.154    -179.401
  H       96.736      14.382    -178.973
  H       97.709       8.971    -186.907
  H       98.749       9.623    -185.648
  H       95.754      13.967    -177.559
  P       91.735      11.416    -178.670
  C       90.989       8.960    -178.584
  O       91.786       9.919    -179.251
  O       90.388      11.973    -179.335
  O       91.816      11.583    -177.192
  H       90.410      11.900    -180.305
  H       91.042       8.018    -179.137
  H       89.948       9.291    -178.546
  H       91.370       8.797    -177.572
  H       99.673       9.316    -177.894
  H       98.258      10.003    -177.134
  H       99.845      10.618    -176.741

 3  4  5  6  7  8  9  10  11  12  22  25  29  30  31  32 0
 6-311+G(2d,p)
 ****
 33  36  37 0
 6-311+G(2d,p)
 ****
 1  2  13  14  15  16  17  18  19  20  21  23  24  26 0
 3-21G
 ****
 27  28  34  35  38  39  40  41  42  43  44  45  46  47  48 0
 3-21G
 ****


