%nproc=1
%NoSave
%Mem=1900MB
#P OB98/GEN NMR

erre ene a

0 1
  C       76.890     557.643     183.069
  O       75.870     557.143     182.219
  P       75.930     557.392     180.641
  C       74.468     559.497     180.897
  O       75.707     558.971     180.427
  C       73.995     560.626     179.990
  O       75.029     561.627     179.814
  C       73.655     560.179     178.570
  O       72.542     559.316     178.411
  C       73.607     561.517     177.849
  O       72.359     562.175     178.045
  C       74.746     562.291     178.550
  N       75.951     562.394     177.714
  C       76.104     563.590     177.017
  O       75.299     564.522     177.082
  N       77.202     563.670     176.214
  C       78.117     562.675     176.007
  O       79.052     562.794     175.225
  C       77.889     561.422     176.744
  C       76.832     561.343     177.556
  O       75.043     556.521     179.823
  O       77.500     557.236     180.298
  H       72.418     563.054     177.614
  H       78.077     557.857     180.770
  H       77.339     564.518     175.684
  H       78.610     560.623     176.610
  H       76.642     560.435     178.117
  H       74.427     563.308     178.806
  H       73.741     561.395     176.765
  H       74.518     559.632     178.168
  H       73.140     561.126     180.473
  H       74.609     559.891     181.909
  H       73.724     558.697     180.951
  P       72.454     558.217     177.244
  C       70.465     559.124     175.853
  O       71.863     558.918     175.931
  O       71.901     556.891     177.636
  O       74.005     558.040     176.850
  H       74.158     557.123     176.552
  H       70.239     559.561     174.882
  H       70.137     559.809     176.635
  H       69.929     558.175     175.939
  H       76.673     557.376     184.082
  H       76.935     558.709     182.983
  H       77.831     557.222     182.783

 3  4  5  6  7  8  9  10  11  12  13  23  28  29  30  31  32 0
 6-311+G(2d,p)
 ****
 33  34 0
 6-311+G(2d,p)
 ****
 1  2  14  15  16  17  18  19  20  21  22  24  25  26  27 0
 3-21G
 ****
 35  36  37  38  39  40  41  42  43  44  45 0
 3-21G
 ****


