%nproc=1
%NoSave
%Mem=1900MB
#P OB98/GEN NMR

erre ene a

0 1
  C      388.951    -895.870    -515.818
  O      388.991    -895.690    -514.390
  P      389.241    -896.960    -513.431
  C      391.575    -896.690    -512.260
  O      390.812    -897.240    -513.350
  C      392.499    -895.590    -512.758
  O      391.737    -894.510    -513.372
  C      393.341    -894.930    -511.694
  O      394.430    -895.740    -511.297
  C      393.746    -893.640    -512.391
  O      394.907    -893.850    -513.238
  C      392.524    -893.300    -513.225
  N      391.708    -892.210    -512.631
  C      391.921    -890.950    -513.175
  O      392.775    -890.690    -514.038
  N      391.144    -889.960    -512.641
  C      390.244    -890.080    -511.624
  O      389.580    -889.150    -511.170
  C      390.132    -891.460    -511.054
  C      390.852    -892.430    -511.568
  O      388.724    -898.160    -514.361
  O      388.495    -896.930    -512.133
  H      395.660    -894.050    -512.623
  H      388.412    -898.900    -513.792
  H      391.247    -889.030    -513.034
  H      389.451    -891.600    -510.229
  H      390.780    -893.430    -511.169
  H      392.805    -893.010    -514.225
  H      394.035    -892.860    -511.669
  H      392.703    -894.680    -510.838
  H      393.135    -896.020    -513.565
  H      392.167    -897.480    -511.819
  H      390.873    -896.310    -511.512
  P      394.217    -896.690    -509.999
  C      394.948    -898.950    -511.091
  O      393.899    -898.150    -510.599
  O      392.800    -896.150    -509.485
  O      395.343    -896.590    -509.030
  H      392.221    -895.840    -510.213
  H      395.890    -898.790    -510.527
  H      395.098    -898.740    -512.154
  H      394.661    -900.000    -510.986
  H      388.777    -894.927    -516.292
  H      388.162    -896.547    -516.070
  H      389.885    -896.270    -516.153

 3  4  5  6  7  8  9  10  11  12  13  23  28  29  30  31  32 0
 6-311+G(2d,p)
 ****
 33  34 0
 6-311+G(2d,p)
 ****
 1  2  14  15  16  17  18  19  20  21  22  24  25  26 0
 3-21G
 ****
 27  35  36  37  38  39  40  41  42  43  44  45 0
 3-21G
 ****


