%nproc=1
%NoSave
%Mem=1900MB
#P OB98/GEN NMR

erre ene a

0 1
  C     -219.685    -379.347    -353.753
  O     -220.674    -379.789    -354.662
  H     -219.455    -380.158    -353.059
  H     -220.063    -378.493    -353.178
  H     -218.772    -379.067    -354.287
  P     -221.036    -378.806    -355.876
  C     -223.368    -379.978    -356.176
  O     -222.637    -378.773    -355.997
  C     -224.858    -379.739    -355.919
  O     -225.138    -379.675    -354.506
  C     -225.358    -378.392    -356.447
  O     -225.438    -378.357    -357.856
  C     -226.709    -378.318    -355.748
  O     -227.688    -379.123    -356.412
  C     -226.366    -378.915    -354.356
  N     -226.240    -377.886    -353.328
  C     -227.437    -377.277    -352.920
  O     -228.513    -377.621    -353.422
  N     -227.381    -376.275    -351.983
  C     -226.238    -375.925    -351.472
  N     -226.245    -374.921    -350.555
  C     -224.961    -376.552    -351.856
  C     -225.037    -377.515    -352.781
  O     -220.603    -379.662    -357.160
  O     -220.417    -377.447    -355.797
  H     -228.491    -379.104    -355.858
  H     -220.998    -380.549    -357.190
  H     -224.030    -376.235    -351.397
  H     -224.134    -378.029    -353.113
  H     -227.148    -379.618    -354.033
  H     -227.097    -377.298    -355.723
  H     -224.734    -377.579    -356.062
  H     -225.422    -380.575    -356.348
  H     -227.146    -374.498    -350.339
  H     -222.991    -380.764    -355.515
  H     -225.426    -374.540    -350.122
  H     -223.213    -380.311    -357.211
  P     -225.444    -376.956    -358.637
  C     -225.509    -378.237    -360.873
  O     -226.129    -377.250    -360.063
  O     -224.131    -376.261    -358.709
  O     -226.586    -376.120    -357.877
  H     -227.473    -376.529    -357.899
  H     -226.053    -378.341    -361.788
  H     -225.503    -379.172    -360.354
  H     -224.503    -377.942    -361.088

 6  7  8  9  10  11  12  13  14  15  16  26  30  31  32  33  35 0
 6-311+G(2d,p)
 ****
 37  38 0
 6-311+G(2d,p)
 ****
 1  2  3  4  5  17  18  19  20  21  22  23  24  25 0
 3-21G
 ****
 27  28  29  34  36  39  40  41  42  43  44  45  46 0
 3-21G
 ****


