%nproc=1
%NoSave
%Mem=1900MB
#P OB98/GEN NMR

erre ene a

0 1
  C     -184.624    -970.569     380.527
  O     -183.656    -971.553     380.189
  H     -185.621    -970.977     380.310
  H     -184.472    -969.661     379.944
  H     -184.569    -970.341     381.593
  P     -182.115    -971.111     380.166
  C     -180.323    -971.233     378.310
  O     -181.706    -971.082     378.601
  C     -180.086    -972.260     377.212
  O     -180.538    -973.574     377.613
  C     -180.868    -971.975     375.929
  O     -180.457    -970.820     375.231
  C     -180.814    -973.330     375.214
  O     -179.588    -973.525     374.513
  C     -180.889    -974.300     376.418
  N     -182.199    -974.930     376.542
  C     -182.349    -976.175     375.919
  O     -181.436    -976.723     375.280
  N     -183.566    -976.764     376.038
  C     -184.657    -976.221     376.655
  O     -185.743    -976.799     376.712
  C     -184.469    -974.894     377.263
  C     -183.256    -974.323     377.185
  O     -181.189    -971.941     381.014
  O     -182.142    -969.563     380.556
  H     -178.912    -973.739     375.178
  H     -181.243    -969.245     380.814
  H     -183.696    -977.666     375.605
  H     -185.314    -974.436     377.756
  H     -183.092    -973.335     377.621
  H     -180.137    -975.102     376.314
  H     -181.629    -973.459     374.505
  H     -181.925    -971.815     376.189
  H     -179.009    -972.320     377.013
  H     -179.816    -971.574     379.226
  H     -179.903    -970.263     378.020
  P     -181.430    -969.626     374.839
  C     -181.732    -968.447     372.526
  O     -181.694    -969.665     373.254
  O     -181.149    -968.290     375.468
  O     -182.846    -970.156     375.438
  H     -183.347    -969.356     375.739
  H     -181.916    -968.655     371.493
  H     -180.794    -967.942     372.626
  H     -182.514    -967.826     372.910

 6  7  8  9  10  11  12  13  14  15  16  26  31  32  33  34  35 0
 6-311+G(2d,p)
 ****
 36  37 0
 6-311+G(2d,p)
 ****
 1  2  3  4  5  17  18  19  20  21  22  23  24  25 0
 3-21G
 ****
 27  28  29  30  38  39  40  41  42  43  44  45 0
 3-21G
 ****


