%nproc=1
%NoSave
%Mem=1900MB
#P OB98/GEN NMR

erre ene a

0 1
  C       12.128      18.238       7.953
  O       11.285      18.702       9.004
  P       11.676      19.849      10.043
  C       11.908      22.244       9.003
  O       11.060      21.228       9.517
  C       11.444      23.663       9.374
  O       10.061      23.840       8.970
  C       11.482      23.862      10.889
  O       12.692      24.217      11.530
  C       10.325      24.806      11.183
  O       10.732      26.174      11.231
  C        9.374      24.573      10.006
  N        5.076      24.628      12.778
  C        6.105      25.548      12.745
  N        6.005      26.594      13.593
  N        7.145      25.442      11.964
  C        7.162      24.306      11.232
  C        6.213      23.311      11.194
  C        5.034      23.466      12.020
  O        4.089      22.687      12.078
  N        6.582      22.297      10.347
  C        7.762      22.665       9.894
  N        8.156      23.884      10.397
  O       13.102      19.867      10.477
  O       10.777      19.499      11.336
  H        9.930      26.724      11.267
  H       11.296      19.775      12.119
  H        4.285      24.771      13.382
  H        8.368      22.095       9.200
  H        9.061      25.523       9.557
  H        9.882      24.580      12.161
  H        5.292      26.670      14.301
  H       11.198      22.904      11.344
  H        6.852      27.149      13.728
  H       12.015      24.415       8.824
  H       11.929      22.120       7.917
  H       12.930      22.089       9.352
  P       13.564      23.282      12.494
  C       15.401      21.512      12.259
  O       14.601      22.469      11.587
  O       12.539      22.144      12.959
  O       14.162      23.975      13.674
  H       12.884      21.675      13.741
  H       16.255      21.256      11.628
  H       14.813      20.609      12.446
  H       15.769      21.910      13.210
  H       11.625      17.468       7.406
  H       13.034      17.848       8.368
  H       12.358      19.050       7.295

 3  4  5  6  7  8  9  10  11  12  23  26  30  31 0
 6-311+G(2d,p)
 ****
 33  35  36  37  38 0
 6-311+G(2d,p)
 ****
 1  2  13  14  15  16  17  18  19  20  21  22  24  25 0
 3-21G
 ****
 27  28  29  32  34  39  40  41  42  43  44  45  46  47  48  49 0
 3-21G
 ****


