%nproc=1
%NoSave
%Mem=1900MB
#P OB98/GEN NMR

erre ene a

0 1
  C      -63.392     -64.339      69.001
  O      -64.641     -64.908      68.674
  P      -66.014     -64.185      69.068
  C      -66.926     -65.702      70.940
  O      -67.017     -65.339      69.567
  C      -67.536     -67.090      71.164
  O      -67.333     -67.469      72.561
  C      -69.051     -67.133      70.878
  O      -69.452     -68.163      69.974
  C      -69.653     -67.214      72.271
  O      -70.972     -67.726      72.298
  C      -68.585     -68.012      73.025
  N      -68.731     -67.914      74.475
  C      -69.529     -68.868      75.098
  O      -70.102     -69.783      74.513
  N      -69.712     -68.710      76.444
  C      -69.285     -67.655      77.191
  O      -69.569     -67.527      78.374
  C      -68.480     -66.657      76.471
  C      -68.223     -66.837      75.173
  O      -66.585     -63.285      68.025
  O      -65.652     -63.445      70.442
  H      -71.502     -67.222      71.653
  H      -65.356     -64.032      71.158
  H      -70.288     -69.395      76.908
  H      -68.136     -65.802      77.036
  H      -67.632     -66.118      74.616
  H      -68.604     -69.067      72.748
  H      -69.699     -66.195      72.675
  H      -69.384     -66.209      70.391
  H      -66.995     -67.799      70.531
  H      -67.477     -64.969      71.535
  H      -65.881     -65.671      71.264
  P      -69.840     -67.938      68.438
  C      -72.039     -69.318      68.568
  O      -70.767     -69.156      67.974
  O      -68.695     -67.634      67.531
  O      -70.861     -66.704      68.489
  H      -70.806     -66.202      67.655
  H      -72.301     -70.379      68.548
  H      -72.781     -68.766      67.986
  H      -72.048     -68.969      69.603
  H      -62.607     -64.976      68.651
  H      -63.316     -64.231      70.063
  H      -63.305     -63.378      68.538

 3  4  5  6  7  8  9  10  11  12  13  23  28  29  30  31  32 0
 6-311+G(2d,p)
 ****
 33  34 0
 6-311+G(2d,p)
 ****
 1  2  14  15  16  17  18  19  20  21  22  24  25  26  27 0
 3-21G
 ****
 35  36  37  38  39  40  41  42  43  44  45 0
 3-21G
 ****


