%nproc=1
%NoSave
%Mem=1900MB
#P OB98/GEN NMR

erre ene a

0 1
  C     -630.756    -435.354     -30.856
  O     -630.750    -435.331     -32.274
  P     -630.955    -436.681     -33.099
  C     -633.454    -436.125     -33.352
  O     -632.498    -437.111     -32.969
  C     -634.552    -436.757     -34.211
  O     -633.970    -437.371     -35.386
  C     -635.323    -437.872     -33.510
  O     -636.263    -437.310     -32.602
  C     -635.949    -438.583     -34.706
  O     -637.125    -437.904     -35.162
  C     -634.825    -438.480     -35.755
  N     -634.804    -443.248     -37.553
  C     -635.784    -442.337     -37.457
  N     -635.723    -441.088     -36.922
  C     -634.493    -440.844     -36.449
  C     -633.404    -441.688     -36.448
  C     -633.577    -442.955     -37.060
  N     -632.567    -443.872     -37.239
  N     -632.318    -441.089     -35.843
  C     -632.755    -439.905     -35.473
  N     -634.044    -439.682     -35.879
  O     -629.972    -437.764     -32.800
  O     -630.840    -436.215     -34.624
  H     -637.809    -438.015     -34.473
  H     -630.091    -436.688     -35.044
  H     -636.753    -442.631     -37.857
  H     -632.163    -439.159     -34.932
  H     -635.229    -438.241     -36.755
  H     -636.235    -439.614     -34.468
  H     -634.632    -438.529     -33.004
  H     -635.205    -435.962     -34.545
  H     -632.939    -435.347     -33.918
  H     -632.768    -444.666     -37.807
  H     -631.601    -443.553     -37.145
  H     -633.887    -435.677     -32.453
  P     -636.777    -438.191     -31.368
  C     -635.075    -436.997     -29.874
  O     -635.599    -438.246     -30.295
  O     -637.373    -439.520     -31.719
  O     -637.862    -437.259     -30.654
  H     -638.567    -437.803     -30.271
  H     -634.412    -436.594     -30.639
  H     -634.502    -437.142     -28.963
  H     -635.895    -436.282     -29.681
  H     -630.605    -434.363     -30.483
  H     -629.970    -435.990     -30.506
  H     -631.697    -435.726     -30.509

 3  4  5  6  7  8  9  10  11  12  22  25  29  30  31  32 0
 6-311+G(2d,p)
 ****
 33  36  37 0
 6-311+G(2d,p)
 ****
 1  2  13  14  15  16  17  18  19  20  21  23  24  26 0
 3-21G
 ****
 27  28  34  35  38  39  40  41  42  43  44  45  46  47  48 0
 3-21G
 ****


