%nproc=1
%NoSave
%Mem=1900MB
#P OB98/GEN NMR

erre ene a

0 1
  C     -571.281    -326.827    -195.943
  O     -572.330    -327.726    -196.233
  P     -572.283    -329.236    -195.691
  C     -573.549    -328.667    -193.516
  O     -572.322    -329.112    -194.087
  C     -574.266    -329.834    -192.809
  O     -573.440    -330.358    -191.752
  C     -575.578    -329.427    -192.155
  O     -576.606    -329.299    -193.122
  C     -575.780    -330.580    -191.172
  O     -576.356    -331.722    -191.822
  C     -574.332    -330.877    -190.729
  N     -574.015    -330.323    -189.424
  C     -574.640    -330.944    -188.332
  O     -575.417    -331.877    -188.511
  N     -574.393    -330.464    -187.070
  C     -573.613    -329.432    -186.920
  N     -573.426    -328.994    -185.643
  C     -572.969    -328.724    -188.042
  C     -573.210    -329.227    -189.255
  O     -571.178    -330.069    -196.237
  O     -573.740    -329.793    -196.038
  H     -576.943    -331.368    -192.525
  H     -573.839    -329.980    -197.007
  H     -572.334    -327.870    -187.862
  H     -572.776    -328.771    -190.135
  H     -574.155    -331.959    -190.703
  H     -576.438    -330.307    -190.343
  H     -575.452    -328.491    -191.600
  H     -574.438    -330.616    -193.553
  H     -573.910    -329.478    -184.905
  H     -574.190    -328.288    -194.320
  H     -572.865    -328.181    -185.416
  H     -573.353    -327.854    -192.818
  P     -577.563    -328.012    -193.103
  C     -576.994    -327.306    -195.505
  O     -576.963    -326.947    -194.135
  O     -577.894    -327.476    -191.758
  O     -578.892    -328.528    -193.848
  H     -579.670    -328.213    -193.351
  H     -576.868    -326.405    -196.109
  H     -577.932    -327.801    -195.767
  H     -576.152    -327.983    -195.719
  H     -571.492    -325.877    -196.387
  H     -570.364    -327.210    -196.339
  H     -571.192    -326.713    -194.883

 3  4  5  6  7  8  9  10  11  12  13  23  27  28  29  30  32 0
 6-311+G(2d,p)
 ****
 34  35 0
 6-311+G(2d,p)
 ****
 1  2  14  15  16  17  18  19  20  21  22  24  25  26 0
 3-21G
 ****
 31  33  36  37  38  39  40  41  42  43  44  45  46 0
 3-21G
 ****


