%nproc=1
%NoSave
%Mem=1900MB
#P OB98/GEN NMR

erre ene a

0 1
  C     -312.410      43.092      10.403
  O     -313.010      44.355      10.166
  P     -312.109      45.664      10.398
  C     -311.647      47.210      12.434
  O     -312.068      45.931      11.981
  C     -310.945      47.104      13.790
  O     -309.678      46.409      13.613
  C     -310.638      48.454      14.459
  O     -310.776      48.257      15.873
  C     -309.185      48.675      14.072
  O     -308.522      49.650      14.858
  C     -308.652      47.251      14.187
  N     -303.584      47.846      14.512
  C     -304.575      48.066      15.404
  N     -305.904      47.877      15.249
  C     -306.174      47.397      14.023
  C     -305.272      47.140      13.003
  C     -303.918      47.383      13.283
  N     -302.909      47.166      12.367
  N     -305.923      46.681      11.875
  C     -307.198      46.662      12.207
  N     -307.396      47.066      13.501
  O     -313.037      46.844       9.850
  O     -310.771      45.638       9.721
  H     -308.906      50.535      14.688
  H     -312.511      47.517       9.377
  H     -304.263      48.445      16.371
  H     -308.012      46.382      11.552
  H     -308.513      46.948      15.233
  H     -309.145      49.021      13.031
  H     -311.312      49.259      14.143
  H     -311.567      46.486      14.454
  H     -312.519      47.860      12.550
  H     -302.005      47.557      12.594
  H     -303.184      47.022      11.404
  H     -310.985      47.661      11.686
  P     -311.776      49.208      16.695
  C     -311.466      51.653      17.419
  O     -311.220      50.688      16.413
  O     -311.270      48.951      18.193
  O     -313.230      48.965      16.476
  H     -310.305      49.063      18.268
  H     -310.954      52.579      17.145
  H     -311.079      51.302      18.381
  H     -312.537      51.851      17.492
  H     -313.122      42.317      10.210
  H     -312.089      43.035      11.422
  H     -311.566      42.971       9.756

 3  4  5  6  7  8  9  10  11  12  22  25  29  30  31  32 0
 6-311+G(2d,p)
 ****
 33  36  37 0
 6-311+G(2d,p)
 ****
 1  2  13  14  15  16  17  18  19  20  21  23  24  26 0
 3-21G
 ****
 27  28  34  35  38  39  40  41  42  43  44  45  46  47  48 0
 3-21G
 ****


