%nproc=1
%NoSave
%Mem=1900MB
#P OB98/GEN NMR

erre ene a

0 1
  C     -269.144    -671.233     198.513
  O     -267.922    -670.624     198.881
  H     -269.655    -670.581     197.800
  H     -269.785    -671.359     199.389
  H     -268.967    -672.201     198.036
  P     -266.898    -671.448     199.799
  C     -268.162    -670.605     201.879
  O     -266.897    -670.754     201.243
  C     -267.960    -670.215     203.343
  O     -267.343    -671.300     204.067
  C     -267.038    -669.022     203.537
  O     -267.686    -667.799     203.207
  C     -266.669    -669.175     205.003
  O     -267.690    -668.642     205.856
  C     -266.585    -670.714     205.149
  N     -265.200    -671.187     205.141
  C     -264.494    -671.034     206.329
  O     -264.975    -670.546     207.348
  N     -263.180    -671.415     206.292
  C     -262.488    -671.790     205.173
  O     -261.266    -671.877     205.134
  C     -263.302    -671.991     203.960
  C     -264.594    -671.673     204.000
  O     -265.547    -671.676     199.204
  O     -267.662    -672.830     200.066
  H     -267.288    -673.519     199.485
  H     -267.619    -667.671     205.780
  H     -262.647    -671.268     207.138
  H     -262.803    -672.359     203.072
  H     -265.209    -671.781     203.110
  H     -267.063    -671.035     206.080
  H     -265.738    -668.665     205.240
  H     -266.138    -669.138     202.926
  H     -268.948    -670.027     203.789
  H     -268.695    -671.565     201.831
  H     -268.746    -669.842     201.347
  P     -267.454    -667.118     201.782
  C     -264.905    -666.787     201.906
  O     -266.177    -666.152     201.891
  O     -268.659    -666.495     201.168
  O     -266.904    -668.315     200.862
  H     -267.423    -668.341     200.038
  H     -264.137    -666.046     201.981
  H     -264.775    -667.346     201.003
  H     -264.846    -667.448     202.746

 6  7  8  9  10  11  12  13  14  15  16  27  31  32  33  34  35 0
 6-311+G(2d,p)
 ****
 36  37 0
 6-311+G(2d,p)
 ****
 1  2  3  4  5  17  18  19  20  21  22  23  24  25 0
 3-21G
 ****
 26  28  29  30  38  39  40  41  42  43  44  45 0
 3-21G
 ****


