%nproc=1
%NoSave
%Mem=1900MB
#P OB98/GEN NMR

erre ene a

0 1
  C      -19.924      99.326    -666.156
  O      -20.156      99.695    -667.498
  H      -20.697      99.778    -665.529
  H      -18.950      99.703    -665.828
  H      -19.961      98.244    -666.032
  P      -19.284      99.010    -668.656
  C      -17.878     101.152    -668.965
  O      -17.864      99.761    -668.669
  C      -17.937     101.366    -670.479
  O      -18.248     102.739    -670.781
  C      -16.626     101.062    -671.208
  O      -16.419      99.665    -671.327
  C      -16.864     101.797    -672.521
  O      -17.672     101.013    -673.411
  C      -17.616     103.060    -672.042
  N      -16.752     104.233    -671.914
  C      -17.277     105.446    -672.356
  O      -18.389     105.544    -672.874
  N      -16.468     106.538    -672.213
  C      -15.182     106.531    -671.747
  O      -14.477     107.530    -671.681
  C      -14.662     105.220    -671.320
  C      -15.450     104.146    -671.415
  O      -19.942      98.884    -669.993
  O      -18.917      97.570    -668.044
  H      -17.245     100.143    -673.495
  H      -19.507      96.897    -668.423
  H      -16.823     107.425    -672.536
  H      -13.649     105.166    -670.947
  H      -15.100     103.177    -671.123
  H      -18.428     103.312    -672.745
  H      -15.932     102.006    -673.059
  H      -15.789     101.538    -670.681
  H      -18.749     100.735    -670.875
  H      -16.959     101.606    -668.579
  H      -18.738     101.614    -668.477
  P      -14.967      99.026    -671.084
  C      -15.151      97.702    -673.278
  O      -14.371      98.622    -672.526
  O      -14.915      97.943    -670.055
  O      -14.066     100.283    -670.644
  H      -13.890     100.235    -669.686
  H      -14.667      97.504    -674.212
  H      -16.119      98.120    -673.459
  H      -15.254      96.789    -672.729

 6  7  8  9  10  11  12  13  14  15  16  26  31  32  33  34  35 0
 6-311+G(2d,p)
 ****
 36  37 0
 6-311+G(2d,p)
 ****
 1  2  3  4  5  17  18  19  20  21  22  23  24  25 0
 3-21G
 ****
 27  28  29  30  38  39  40  41  42  43  44  45 0
 3-21G
 ****


