%nproc=1
%NoSave
%Mem=1900MB
#P OB98/GEN NMR

erre ene a

0 1
  C     -892.870    -720.337    -433.054
  O     -893.830    -719.372    -433.452
  H     -893.390    -721.240    -432.743
  H     -892.280    -719.961    -432.207
  H     -892.210    -720.577    -433.891
  P     -893.270    -718.024    -434.112
  C     -894.320    -718.152    -436.519
  O     -893.180    -718.319    -435.685
  C     -894.720    -719.469    -437.177
  O     -895.000    -720.440    -436.123
  C     -895.960    -719.368    -438.072
  O     -895.790    -720.260    -439.184
  C     -897.080    -719.873    -437.179
  O     -898.190    -720.349    -437.943
  C     -896.360    -720.945    -436.355
  N     -897.030    -721.239    -435.097
  C     -898.100    -722.147    -435.163
  O     -898.420    -722.660    -436.234
  N     -898.800    -722.437    -434.002
  C     -898.510    -721.815    -432.917
  N     -899.240    -722.124    -431.810
  C     -897.420    -720.811    -432.815
  C     -896.730    -720.591    -433.912
  O     -891.730    -718.034    -433.637
  O     -894.010    -716.786    -433.735
  H     -898.940    -720.525    -437.348
  H     -891.310    -718.914    -433.722
  H     -897.220    -720.318    -431.867
  H     -895.920    -719.867    -433.938
  H     -896.250    -721.877    -436.919
  H     -897.450    -719.064    -436.538
  H     -896.130    -718.360    -438.435
  H     -893.870    -719.873    -437.730
  H     -900.000    -722.825    -431.932
  H     -894.110    -717.403    -437.301
  H     -899.140    -721.669    -430.925
  H     -895.140    -717.762    -435.896
  P     -894.790    -719.859    -440.360
  C     -893.400    -722.043    -440.546
  O     -893.410    -720.658    -440.197
  O     -894.660    -718.400    -440.647
  O     -895.460    -720.598    -441.639
  H     -895.380    -719.989    -442.394
  H     -892.420    -722.444    -440.388
  H     -893.669    -722.153    -441.576
  H     -894.103    -722.570    -439.936

 6  7  8  9  10  11  12  13  14  15  16  26  30  31  32  33  35 0
 6-311+G(2d,p)
 ****
 37  38 0
 6-311+G(2d,p)
 ****
 1  2  3  4  5  17  18  19  20  21  22  23  24  25 0
 3-21G
 ****
 27  28  29  34  36  39  40  41  42  43  44  45  46 0
 3-21G
 ****


