%nproc=1
%NoSave
%Mem=1900MB
#P OB98/GEN NMR

erre ene a

0 1
  C       21.039      -7.661      13.571
  O       21.117      -6.256      13.394
  P       21.304      -5.701      11.900
  C       23.376      -4.231      12.386
  O       22.000      -4.260      12.032
  C       23.994      -2.880      12.051
  O       23.751      -2.586      10.648
  C       23.434      -1.707      12.872
  O       24.515      -0.861      13.286
  C       22.604      -0.933      11.863
  O       22.475       0.439      12.218
  C       23.408      -1.187      10.588
  N       22.553       2.391       7.130
  C       23.518       2.329       8.115
  N       24.333       3.401       8.228
  N       23.670       1.312       8.921
  C       22.805       0.298       8.673
  C       21.813       0.238       7.723
  C       21.618       1.397       6.878
  O       20.724       1.550       6.048
  N       21.152      -0.963       7.766
  C       21.739      -1.627       8.743
  N       22.716      -0.884       9.356
  O       19.805      -5.362      11.456
  O       21.949      -6.646      10.946
  H       22.140       0.909      11.431
  H       19.588      -5.841      10.633
  H       22.469       3.207       6.549
  H       21.471      -2.627       9.061
  H       24.339      -0.606      10.600
  H       21.604      -1.374      11.805
  H       24.294       4.201       7.618
  H       22.847      -2.010      13.744
  H       25.062       3.365       8.930
  H       25.082      -2.953      12.176
  H       23.905      -5.015      11.834
  H       23.470      -4.432      13.458
  P       24.758      -0.755      14.870
  C       24.359       1.810      15.073
  O       25.277       0.736      15.132
  O       26.057      -1.659      15.106
  O       23.594      -1.199      15.692
  H       26.081      -1.987      16.024
  H       23.323       1.464      15.006
  H       24.583       2.422      14.197
  H       24.469       2.421      15.972
  H       20.916      -7.883      14.610
  H       21.939      -8.116      13.213
  H       20.204      -8.044      13.023

 3  4  5  6  7  8  9  10  11  12  23  26  30  31  33  0
 6-311+G(2d,p)
 ****
 35  36  37  38 0
 6-311+G(2d,p)
 ****
 1  2  13  14  15  16  17  18  19  20  21  22  24  25  27  28  29 0
 3-21G
 ****
 32  34  39  40  41  42  43  44  45  46  47  48  49 0
 3-21G
 ****


