%nproc=1
%NoSave
%Mem=1900MB
#P OB98/GEN NMR

erre ene a

0 1
  C      303.371     908.830    -345.588
  O      302.357     907.965    -346.065
  H      304.082     908.270    -344.979
  H      303.902     909.259    -346.449
  H      302.934     909.648    -345.006
  P      301.470     907.210    -344.960
  C      299.002     907.517    -344.222
  O      299.932     907.512    -345.303
  C      297.620     907.925    -344.729
  O      297.570     909.378    -344.817
  C      297.244     907.351    -346.109
  O      296.032     906.575    -346.015
  C      296.968     908.583    -346.976
  O      295.847     908.420    -347.841
  C      296.737     909.697    -345.949
  N      295.288     913.267    -349.268
  C      294.594     912.277    -348.662
  N      295.014     911.427    -347.703
  C      296.284     911.688    -347.371
  C      297.110     912.674    -347.886
  C      296.580     913.476    -348.901
  N      297.306     914.448    -349.569
  N      298.364     912.617    -347.300
  C      298.303     911.602    -346.475
  N      297.081     910.991    -346.494
  O      301.740     908.060    -343.629
  O      301.809     905.764    -344.770
  H      295.086     908.217    -347.267
  H      301.947     907.453    -342.893
  H      293.566     912.154    -348.986
  H      299.131     911.222    -345.865
  H      295.690     909.724    -345.602
  H      297.868     908.775    -347.589
  H      298.044     906.735    -346.540
  H      296.875     907.628    -343.986
  H      299.328     908.243    -343.459
  H      296.865     914.898    -350.365
  H      298.282     914.523    -349.372
  H      298.974     906.526    -343.769
  P      296.199     904.980    -345.967
  C      294.799     903.242    -344.637
  O      294.793     904.367    -345.512
  O      297.147     904.747    -344.694
  O      296.787     904.395    -347.215
  H      297.643     903.919    -344.797
  H      293.792     902.950    -344.425
  H      295.294     903.502    -343.725
  H      295.316     902.430    -345.104

 6  7  8  9  10  11  12  13  14  15  25  28  32  33  34  35 0
 6-311+G(2d,p)
 ****
 36  39  40 0
 6-311+G(2d,p)
 ****
 1  2  3  4  5  16  17  18  19  20  21  22  23  24 0
 3-21G
 ****
 26  27  29  30  31  37  38  41  42  43  44  45  46  47  48 0
 3-21G
 ****


