%nproc=1
%NoSave
%Mem=1900MB
#P OB98/GEN NMR

erre ene a

0 1
  C     -895.047    -897.016    -823.782
  O     -895.607    -897.166    -822.486
  H     -894.377    -897.846    -823.974
  H     -894.487    -896.076    -823.848
  H     -895.837    -897.026    -824.541
  P     -896.607    -896.016    -822.000
  C     -897.067    -897.676    -820.073
  O     -896.817    -896.306    -820.431
  C     -896.557    -897.946    -818.659
  O     -895.107    -897.986    -818.653
  C     -896.987    -896.866    -817.630
  O     -897.307    -897.486    -816.393
  C     -895.747    -896.006    -817.479
  O     -895.707    -895.326    -816.222
  C     -894.627    -897.046    -817.685
  N     -889.577    -896.866    -816.996
  C     -890.527    -897.666    -816.489
  N     -891.847    -897.656    -816.743
  C     -892.157    -896.726    -817.651
  C     -891.287    -895.836    -818.274
  C     -889.947    -895.946    -817.912
  N     -888.947    -895.116    -818.401
  N     -891.987    -895.006    -819.133
  C     -893.237    -895.406    -819.047
  N     -893.407    -896.426    -818.158
  O     -897.867    -895.876    -822.796
  O     -895.657    -894.746    -821.978
  H     -896.407    -894.646    -816.224
  H     -894.787    -894.936    -821.598
  H     -890.197    -898.426    -815.750
  H     -894.097    -894.976    -819.595
  H     -894.377    -897.596    -816.778
  H     -895.717    -895.246    -818.274
  H     -897.847    -896.266    -817.986
  H     -896.917    -898.946    -818.341
  H     -896.557    -898.336    -820.773
  H     -888.007    -895.246    -818.098
  H     -889.207    -894.416    -819.106
  H     -898.137    -897.846    -820.136
  P     -898.777    -897.306    -815.800
  C     -899.097    -899.566    -814.545
  O     -898.907    -898.156    -814.440
  O     -899.917    -897.486    -816.757
  O     -898.727    -895.796    -815.243
  H     -899.617    -895.376    -815.412
  H     -899.165    -899.991    -813.565
  H     -898.269    -900.000    -815.065
  H     -900.000    -899.765    -815.084

 6  7  8  9  10  11  12  13  14  15  25  28  32  33  34  35 0
 6-311+G(2d,p)
 ****
 36  39  40 0
 6-311+G(2d,p)
 ****
 1  2  3  4  5  16  17  18  19  20  21  22  23  24 0
 3-21G
 ****
 26  27  29  30  31  37  38  41  42  43  44  45  46  47 0
 3-21G
 ****
 48 0
 3-21G
 ****


