%nproc=1
%NoSave
%Mem=1900MB
#P OB98/GEN NMR

erre ene a

0 1
  C     -457.204    -590.606    -730.326
  O     -458.078    -590.163    -729.313
  H     -457.679    -591.426    -730.870
  H     -456.268    -590.966    -729.887
  H     -456.996    -589.790    -731.025
  P     -457.544    -588.990    -728.349
  C     -459.778    -588.277    -727.237
  O     -458.535    -588.945    -727.087
  C     -460.311    -587.864    -725.865
  O     -460.456    -589.020    -725.021
  C     -459.386    -586.922    -725.106
  O     -459.479    -585.577    -725.567
  C     -459.899    -587.096    -723.690
  O     -461.042    -586.246    -723.431
  C     -460.301    -588.583    -723.659
  N     -459.328    -589.395    -722.929
  C     -459.432    -589.365    -721.540
  O     -460.289    -588.697    -720.939
  N     -458.509    -590.091    -720.849
  C     -457.480    -590.807    -721.397
  O     -456.628    -591.384    -720.721
  C     -457.425    -590.813    -722.869
  C     -458.330    -590.111    -723.551
  O     -457.902    -587.660    -729.165
  O     -456.091    -589.069    -728.004
  H     -457.100    -587.311    -729.586
  H     -461.671    -586.404    -724.168
  H     -458.561    -590.069    -719.846
  H     -456.621    -591.377    -723.335
  H     -458.291    -590.087    -724.635
  H     -461.279    -588.712    -723.176
  H     -459.145    -586.832    -722.946
  H     -458.348    -587.283    -725.148
  H     -461.301    -587.406    -725.997
  H     -460.504    -588.954    -727.711
  H     -459.647    -587.401    -727.888
  P     -458.124    -584.759    -725.801
  C     -458.712    -583.559    -728.077
  O     -458.525    -583.464    -726.673
  O     -457.362    -585.697    -726.842
  O     -457.368    -584.452    -724.549
  H     -457.959    -586.138    -727.465
  H     -458.972    -582.598    -728.468
  H     -459.499    -584.254    -728.286
  H     -457.806    -583.898    -728.535

 6  7  8  9  10  11  12  13  14  15  16  27  31  32  33  34  35 0
 6-311+G(2d,p)
 ****
 36  37 0
 6-311+G(2d,p)
 ****
 1  2  3  4  5  17  18  19  20  21  22  23  24  25 0
 3-21G
 ****
 26  28  29  30  38  39  40  41  42  43  44  45 0
 3-21G
 ****


