%nproc=1
%NoSave
%Mem=1900MB
#P OB98/GEN NMR

erre ene a

0 1
  C     -414.000     -11.641     306.789
  O     -414.172     -11.369     308.164
  H     -414.942     -12.027     306.391
  H     -413.225     -12.399     306.648
  H     -413.735     -10.733     306.243
  P     -412.990     -10.635     308.959
  C     -413.694      -8.210     308.450
  O     -413.560      -9.218     309.445
  C     -414.809      -7.244     308.838
  O     -416.092      -7.905     308.744
  C     -414.716      -6.740     310.272
  O     -413.704      -5.763     310.419
  C     -416.134      -6.240     310.492
  O     -416.309      -4.926     309.949
  C     -416.968      -7.272     309.704
  N     -417.591      -8.262     310.583
  C     -418.401      -7.761     311.597
  O     -418.613      -6.562     311.767
  N     -418.917      -8.690     312.459
  C     -418.594     -10.016     312.486
  O     -418.883     -10.760     313.418
  C     -417.787     -10.499     311.357
  C     -417.318      -9.612     310.478
  O     -411.673     -10.583     308.257
  O     -412.887     -11.465     310.327
  H     -412.124     -12.070     310.278
  H     -415.941      -4.959     309.043
  H     -419.472      -8.329     313.223
  H     -417.566     -11.558     311.302
  H     -416.690      -9.938     309.654
  H     -417.757      -6.769     309.130
  H     -416.385      -6.195     311.554
  H     -414.529      -7.583     310.949
  H     -414.805      -6.406     308.130
  H     -413.941      -8.686     307.497
  H     -412.741      -7.681     308.348
  P     -412.822      -5.707     311.753
  C     -411.011      -7.333     310.932
  O     -411.297      -6.008     311.363
  O     -413.346      -6.509     312.897
  O     -412.788      -4.149     312.127
  H     -413.032      -4.045     313.067
  H     -409.970      -7.416     310.700
  H     -411.589      -7.557     310.060
  H     -411.259      -8.023     311.711

 6  7  8  9  10  11  12  13  14  15  16  27  31  32  33  34  35 0
 6-311+G(2d,p)
 ****
 36  37 0
 6-311+G(2d,p)
 ****
 1  2  3  4  5  17  18  19  20  21  22  23  24  25 0
 3-21G
 ****
 26  28  29  30  38  39  40  41  42  43  44  45 0
 3-21G
 ****


