%nproc=1
%NoSave
%Mem=1900MB
#P OB98/GEN NMR

erre ene a

0 1
  C     -457.787     398.215     557.630
  O     -457.968     398.554     556.261
  P     -457.541     400.034     555.799
  C     -457.335     399.704     553.231
  O     -458.105     400.216     554.308
  C     -458.259     399.145     552.142
  O     -458.755     397.842     552.512
  C     -459.501     399.995     551.890
  O     -459.239     401.100     551.043
  C     -460.402     398.989     551.180
  O     -460.022     398.879     549.799
  C     -460.070     397.684     551.925
  N     -464.814     396.190     552.850
  C     -464.114     396.208     551.663
  N     -464.792     395.833     550.554
  N     -462.858     396.567     551.561
  C     -462.309     396.920     552.757
  C     -462.907     396.935     554.000
  C     -464.296     396.563     554.083
  O     -464.991     396.563     555.097
  N     -462.029     397.348     554.966
  C     -460.912     397.585     554.312
  N     -461.044     397.378     552.962
  O     -455.957     399.910     555.589
  O     -457.900     401.112     556.767
  H     -460.143     399.768     549.404
  H     -455.556     400.804     555.569
  H     -465.783     395.913     552.866
  H     -459.980     397.914     554.778
  H     -460.021     396.828     551.249
  H     -461.453     399.272     551.202
  H     -465.772     395.610     550.545
  H     -459.978     400.304     552.826
  H     -464.317     395.905     549.662
  H     -457.669     399.037     551.221
  H     -456.682     398.910     553.591
  H     -456.712     400.507     552.820
  P     -460.115     402.427     551.299
  C     -458.199     404.169     551.027
  O     -459.362     403.590     550.478
  O     -459.805     402.775     552.825
  O     -461.574     402.265     551.034
  H     -460.542     403.280     553.225
  H     -457.682     404.732     550.240
  H     -457.522     403.398     551.415
  H     -458.464     404.859     551.833
  H     -458.111     397.208     557.794
  H     -458.363     398.879     558.241
  H     -456.752     398.303     557.885

 3  4  5  6  7  8  9  10  11  12  23  26  30  31 0
 6-311+G(2d,p)
 ****
 33  35  36  37  38 0
 6-311+G(2d,p)
 ****
 1  2  13  14  15  16  17  18  19  20  21  22  24  25 0
 3-21G
 ****
 27  28  29  32  34  39  40  41  42  43  44  45  46  47  48  49 0
 3-21G
 ****


