%nproc=1
%NoSave
%Mem=1900MB
#P OB98/GEN NMR

erre ene a

0 1
  C      202.272      31.690     133.201
  O      201.484      31.652     134.392
  P      201.574      32.886     135.409
  C      200.276      34.522     133.881
  O      200.321      33.859     135.143
  C      199.222      35.643     133.890
  O      197.905      35.050     134.004
  C      199.339      36.620     135.065
  O      200.172      37.767     134.913
  C      197.906      37.138     135.165
  O      197.702      38.198     134.211
  C      197.058      35.932     134.777
  N      194.011      36.310     138.875
  C      194.344      37.196     137.911
  N      195.159      37.014     136.851
  C      195.656      35.764     136.832
  C      195.399      34.751     137.749
  C      194.541      35.062     138.812
  N      194.208      34.169     139.803
  N      196.091      33.602     137.405
  C      196.759      33.927     136.313
  N      196.513      35.216     135.918
  O      202.902      33.561     135.501
  O      201.179      32.209     136.813
  H      198.476      38.788     134.280
  H      201.725      32.611     137.517
  H      193.890      38.180     137.999
  H      197.421      33.265     135.783
  H      196.205      36.200     134.141
  H      197.680      37.558     136.153
  H      199.608      36.091     135.993
  H      199.271      36.189     132.943
  H      200.026      33.791     133.099
  H      193.622      34.482     140.552
  H      194.638      33.249     139.808
  H      201.279      34.885     133.662
  P      200.856      38.481     136.180
  C      202.852      39.753     135.062
  O      201.547      39.806     135.606
  O      201.759      37.610     136.983
  O      199.591      39.048     136.976
  H      199.124      39.772     136.531
  H      203.049      40.694     134.543
  H      202.948      38.929     134.350
  H      203.583      39.642     135.870
  H      202.101      30.800     132.632
  H      203.308      31.754     133.461
  H      201.997      32.544     132.618

 3  4  5  6  7  8  9  10  11  12  22  25  29  30  31  32 0
 6-311+G(2d,p)
 ****
 33  36  37 0
 6-311+G(2d,p)
 ****
 1  2  13  14  15  16  17  18  19  20  21  23  24  26 0
 3-21G
 ****
 27  28  34  35  38  39  40  41  42  43  44  45  46  47  48 0
 3-21G
 ****


