%nproc=1
%NoSave
%Mem=1900MB
#P OB98/GEN NMR

erre ene a

0 1
  C       78.612     366.733    -164.809
  O       78.851     365.649    -165.683
  H       77.622     367.146    -165.019
  H       79.361     367.518    -164.970
  H       78.642     366.399    -163.768
  P       80.244     364.874    -165.509
  C       81.237     366.248    -167.485
  O       81.375     365.833    -166.128
  C       82.615     366.550    -168.071
  O       83.230     367.624    -167.325
  C       83.596     365.383    -168.000
  O       83.368     364.433    -169.026
  C       84.931     366.111    -168.130
  O       85.255     366.376    -169.500
  C       84.661     367.434    -167.394
  N       88.317     369.449    -164.464
  C       87.950     369.684    -165.745
  N       86.949     369.113    -166.449
  C       86.286     368.224    -165.688
  C       86.549     367.873    -164.372
  C       87.618     368.532    -163.748
  N       88.015     368.266    -162.463
  N       85.677     366.886    -163.954
  C       84.904     366.649    -164.993
  N       85.230     367.437    -166.061
  O       80.127     363.685    -166.579
  O       80.523     364.366    -164.133
  H       85.514     365.524    -169.895
  H       79.799     362.880    -166.135
  H       88.545     370.426    -166.277
  H       84.097     365.917    -165.022
  H       85.076     368.296    -167.927
  H       85.747     365.524    -167.708
  H       83.549     364.907    -167.011
  H       82.484     366.887    -169.110
  H       80.619     367.151    -167.527
  H       80.745     365.450    -168.050
  H       88.804     368.762    -162.081
  H       87.569     367.509    -161.956
  P       83.270     362.887    -168.629
  C       85.650     362.201    -169.431
  O       84.762     362.366    -168.335
  O       82.883     362.171    -170.011
  O       82.288     362.582    -167.548
  H       81.925     361.981    -170.032
  H       86.596     361.851    -169.074
  H       85.781     363.139    -169.928
  H       85.242     361.488    -170.117

 6  7  8  9  10  11  12  13  14  15  25  28  32  33  34  35 0
 6-311+G(2d,p)
 ****
 36  37  40 0
 6-311+G(2d,p)
 ****
 1  2  3  4  5  16  17  18  19  20  21  22  23  24 0
 3-21G
 ****
 26  27  29  30  31  38  39 41  42  43  44  45  46  47  48 0
 3-21G
 ****


