%nproc=1
%NoSave
%Mem=1900MB
#P OB98/GEN NMR

erre ene a

0 1
  C     -238.758    -196.290    -103.280
  O     -238.661    -195.807    -101.955
  H     -238.642    -197.377    -103.298
  H     -239.742    -196.032    -103.676
  H     -237.991    -195.824    -103.905
  P     -237.319    -196.181    -101.158
  C     -237.796    -197.812     -99.201
  O     -237.529    -197.668    -100.588
  C     -239.294    -197.729     -98.943
  O     -240.006    -198.610     -99.836
  C     -239.725    -198.147     -97.540
  O     -239.498    -197.121     -96.589
  C     -241.212    -198.387     -97.765
  O     -241.915    -197.129     -97.745
  C     -241.244    -198.985     -99.178
  N     -244.433    -202.974     -98.640
  C     -244.637    -201.640     -98.555
  N     -243.742    -200.640     -98.697
  C     -242.522    -201.127     -98.972
  C     -242.163    -202.461     -99.090
  C     -243.181    -203.412     -98.906
  N     -242.959    -204.771     -98.979
  N     -240.824    -202.580     -99.394
  C     -240.377    -201.343     -99.457
  N     -241.367    -200.428     -99.203
  O     -237.399    -195.268     -99.843
  O     -236.047    -195.953    -101.904
  H     -242.862    -197.337     -97.822
  H     -236.499    -194.981     -99.602
  H     -245.659    -201.331     -98.346
  H     -239.356    -201.062     -99.688
  H     -242.061    -198.562     -99.775
  H     -241.665    -199.024     -97.000
  H     -239.250    -199.087     -97.242
  H     -239.616    -196.701     -99.157
  H     -237.290    -197.013     -98.647
  H     -243.754    -205.387     -99.032
  H     -242.019    -205.088     -99.185
  H     -237.405    -198.780     -98.865
  P     -239.391    -197.553     -95.043
  C     -241.466    -196.818     -93.671
  O     -240.900    -197.782     -94.554
  O     -238.967    -196.194     -94.313
  O     -238.432    -198.661     -94.762
  H     -238.496    -196.396     -93.483
  H     -242.470    -197.100     -93.432
  H     -241.468    -195.858     -94.144
  H     -240.885    -196.772     -92.774

 6  7  8  9  10  11  12  13  14  15  25  28  32  33  34  35 0
 6-311+G(2d,p)
 ****
 36  39  40 0
 6-311+G(2d,p)
 ****
 1  2  3  4  5  16  17  18  19  20  21  22  23  24 0
 3-21G
 ****
 26  27  29  30  31  37  38  41  42  43  44  45  46  47  48 0
 3-21G
 ****


