%nproc=1
%NoSave
%Mem=1900MB
#P OB98/GEN NMR

erre ene a

0 1
  C        1.608     -14.541     -31.401
  O        2.555     -14.683     -32.446
  P        2.000     -14.933     -33.933
  C        2.118     -17.468     -33.345
  O        1.387     -16.415     -33.952
  C        1.474     -18.820     -33.661
  O        0.092     -18.788     -33.220
  C        1.467     -19.196     -35.147
  O        1.575     -20.622     -35.218
  C        0.084     -18.767     -35.602
  O       -0.335     -19.432     -36.789
  C       -0.737     -19.099     -34.361
  N       -5.762     -19.333     -33.850
  C       -4.836     -20.354     -33.965
  N       -5.316     -21.612     -33.870
  N       -3.557     -20.158     -34.153
  C       -3.224     -18.847     -34.211
  C       -4.050     -17.751     -34.150
  C       -5.456     -17.980     -33.904
  O       -6.297     -17.106     -33.710
  N       -3.356     -16.586     -34.337
  C       -2.100     -16.973     -34.429
  N       -1.964     -18.330     -34.312
  O        3.340     -15.065     -34.794
  O        1.076     -13.883     -34.465
  H        0.142     -19.028     -37.542
  H        3.592     -14.207     -35.188
  H       -6.731     -19.546     -33.688
  H       -1.253     -16.322     -34.574
  H       -1.008     -20.162     -34.308
  H        0.079     -17.689     -35.801
  H       -6.284     -21.835     -33.695
  H        2.267     -18.723     -35.723
  H       -4.654     -22.377     -33.918
  H        1.987     -19.591     -33.074
  H        2.109     -17.324     -32.260
  H        3.156     -17.441     -33.689
  P        2.212     -21.261     -36.542
  C       -0.063     -21.755     -37.675
  O        1.163     -21.055     -37.732
  O        2.133     -22.836     -36.251
  O        3.619     -20.845     -36.825
  H        2.883     -23.286     -36.680
  H       -0.796     -21.231     -38.294
  H       -0.446     -21.816     -36.652
  H        0.076     -22.764     -38.071
  H        2.120     -14.381     -30.475
  H        1.016     -15.430     -31.333
  H        0.973     -13.705     -31.606

 3  4  5  6  7  8  9  10  11  12  23  26  30  31 0
 6-311+G(2d,p)
 ****
 33  35  36  37  38 0
 6-311+G(2d,p)
 ****
 1  2  13  14  15  16  17  18  19  20  21  22  24  25 0
 3-21G
 ****
 27  28  29  32  34  39  40  41  42  43  44  45  46  47  48  49 0
 3-21G
 ****


