%nproc=1
%NoSave
%Mem=1900MB
#P OB98/GEN NMR

erre ene a

0 1
  C      387.994     -61.537    -169.187
  O      386.982     -60.659    -168.680
  P      385.897     -60.155    -169.756
  C      383.864     -60.207    -168.151
  O      384.720     -59.409    -168.952
  C      383.269     -59.383    -167.009
  O      384.267     -59.128    -165.978
  C      382.705     -58.016    -167.454
  O      381.540     -57.756    -166.631
  C      383.836     -57.077    -167.094
  O      383.462     -55.708    -167.056
  C      384.276     -57.693    -165.765
  N      388.171     -58.681    -162.602
  C      386.984     -59.308    -162.799
  N      386.001     -58.977    -163.669
  C      386.325     -57.867    -164.366
  C      387.492     -57.124    -164.261
  C      388.449     -57.562    -163.321
  N      389.631     -56.919    -163.093
  N      387.446     -56.038    -165.132
  C      386.249     -56.108    -165.688
  N      385.572     -57.246    -165.321
  O      385.213     -61.510    -170.274
  O      386.495     -59.353    -170.882
  H      384.261     -55.166    -166.868
  H      385.602     -61.787    -171.125
  H      386.816     -60.189    -162.200
  H      385.830     -55.373    -166.361
  H      383.570     -57.470    -164.959
  H      384.638     -57.170    -167.843
  H      382.407     -57.978    -168.507
  H      382.471     -59.980    -166.535
  H      384.413     -61.055    -167.742
  H      390.250     -57.305    -162.397
  H      389.878     -56.080    -163.604
  H      383.071     -60.638    -168.795
  P      380.095     -57.799    -167.317
  C      378.987     -58.899    -165.271
  O      379.067     -57.732    -166.074
  O      380.007     -59.359    -167.708
  O      379.867     -56.863    -168.451
  H      380.235     -59.932    -166.949
  H      378.334     -58.687    -164.426
  H      379.982     -59.161    -164.887
  H      378.579     -59.735    -165.856
  H      388.659     -61.810    -168.394
  H      388.544     -61.040    -169.959
  H      387.535     -62.417    -169.587

 3  4  5  6  7  8  9  10  11  12  22  25  29  30  31  32 0
 6-311+G(2d,p)
 ****
 33  36  37 0
 6-311+G(2d,p)
 ****
 1  2  13  14  15  16  17  18  19  20  21  23  24  26 0
 3-21G
 ****
 27  28  34  35  38  39  40  41  42  43  44  45  46  47  48 0
 3-21G
 ****


