%nproc=1
%NoSave
%Mem=1900MB
#P OB98/GEN NMR

erre ene a

0 1
  C     1312.973    1201.391    -347.623
  O     1314.285    1201.227    -347.113
  H     1312.994    1202.170    -348.386
  H     1312.284    1201.688    -346.836
  H     1312.631    1200.453    -348.086
  P     1314.504    1200.213    -345.895
  C     1315.749    1201.660    -344.148
  O     1315.856    1200.660    -345.158
  C     1317.006    1201.710    -343.286
  O     1318.175    1201.707    -344.150
  C     1317.099    1202.944    -342.373
  O     1317.827    1202.592    -341.207
  C     1317.920    1203.893    -343.241
  O     1318.411    1204.969    -342.509
  C     1318.934    1202.905    -343.827
  N     1319.623    1203.431    -344.998
  C     1320.810    1204.136    -344.737
  O     1321.218    1204.274    -343.586
  N     1321.511    1204.667    -345.788
  C     1321.011    1204.566    -346.997
  N     1321.738    1205.134    -348.000
  C     1319.731    1203.893    -347.291
  C     1319.112    1203.356    -346.270
  O     1314.438    1198.759    -346.238
  O     1313.362    1200.615    -344.836
  H     1318.707    1205.693    -343.100
  H     1312.647    1199.961    -344.862
  H     1319.353    1203.871    -348.328
  H     1318.149    1202.823    -346.389
  H     1319.683    1202.622    -343.073
  H     1317.287    1204.310    -344.040
  H     1316.117    1203.364    -342.112
  H     1317.046    1200.782    -342.682
  H     1322.615    1205.604    -347.754
  H     1314.876    1201.414    -343.542
  H     1321.443    1205.154    -348.974
  H     1315.583    1202.649    -344.610
  P     1317.491    1203.178    -339.749
  C     1319.973    1203.425    -339.133
  O     1318.718    1202.882    -338.762
  O     1316.167    1202.755    -339.208
  O     1317.535    1204.771    -339.936
  H     1316.908    1205.175    -339.302
  H     1320.707    1203.161    -338.400
  H     1319.897    1204.491    -339.193
  H     1320.263    1203.034    -340.086

 6  7  8  9  10  11  12  13  14  15  16  26  30  31  32  33  35 0
 6-311+G(2d,p)
 ****
 37  38 0
 6-311+G(2d,p)
 ****
 1  2  3  4  5  17  18  19  20  21  22  23  24  25 0
 3-21G
 ****
 27  28  29  34  36  39  40  41  42  43  44  45  46 0
 3-21G
 ****


