%nproc=1
%NoSave
%Mem=1900MB
#P OB98/GEN NMR

erre ene a

0 1
  C     -201.979    -292.444    -358.533
  O     -202.934    -293.093    -357.675
  P     -204.002    -294.168    -358.198
  C     -206.544    -294.336    -358.615
  O     -205.476    -293.535    -358.116
  C     -207.831    -294.142    -357.805
  O     -207.816    -295.009    -356.622
  C     -208.068    -292.700    -357.305
  O     -209.466    -292.454    -357.419
  C     -207.621    -292.796    -355.851
  O     -208.109    -291.739    -355.042
  C     -208.177    -294.177    -355.501
  N     -207.682    -294.750    -354.252
  C     -208.618    -295.362    -353.404
  O     -209.811    -295.367    -353.664
  N     -208.159    -295.950    -352.243
  C     -206.894    -295.917    -351.956
  N     -206.514    -296.524    -350.792
  C     -205.883    -295.274    -352.806
  C     -206.342    -294.721    -353.928
  O     -203.889    -295.497    -357.529
  O     -203.733    -294.302    -359.773
  H     -203.882    -295.238    -360.040
  H     -207.585    -290.937    -355.254
  H     -204.840    -295.286    -352.532
  H     -205.656    -294.247    -354.628
  H     -209.276    -294.137    -355.473
  H     -206.527    -292.768    -355.815
  H     -207.528    -291.951    -357.894
  H     -208.673    -294.475    -358.418
  H     -207.238    -296.971    -350.235
  H     -206.242    -295.391    -358.556
  H     -205.557    -296.572    -350.475
  H     -206.713    -294.089    -359.671
  P     -210.024    -291.574    -358.634
  C     -210.804    -289.106    -358.960
  O     -210.340    -290.101    -358.074
  O     -211.506    -292.172    -358.831
  O     -209.266    -291.660    -359.920
  H     -211.795    -292.025    -359.745
  H     -211.631    -288.567    -358.486
  H     -211.156    -289.521    -359.909
  H     -209.989    -288.394    -359.157
  H     -201.379    -291.773    -357.955
  H     -202.496    -291.896    -359.292
  H     -201.352    -293.181    -358.990

 3  4  5  6  7  8  9  10  11  12  13  24  27  28  29  30  32 0
 6-311+G(2d,p)
 ****
 34  35 0
 6-311+G(2d,p)
 ****
 1  2  14  15  16  17  18  19  20  21  22  23  25  26 0
 3-21G
 ****
 31  33  36  37  38  39  40  41  42  43  44  45  46 0
 3-21G
 ****


