%nproc=1
%NoSave
%Mem=1900MB
#P OB98/GEN NMR

erre ene a

0 1
  C      178.716     197.104     123.401
  O      178.178     195.804     123.531
  H      179.638     197.162     123.987
  H      178.009     197.846     123.780
  H      178.947     197.311     122.354
  P      176.755     195.546     122.832
  C      177.911     195.124     120.532
  O      177.115     194.599     121.584
  C      178.447     193.989     119.668
  O      179.513     193.288     120.351
  C      177.420     192.914     119.319
  O      176.529     193.303     118.289
  C      178.348     191.799     118.875
  O      178.867     192.096     117.566
  C      179.452     191.891     119.949
  N      179.196     191.034     121.110
  C      179.413     189.661     120.935
  O      179.797     189.217     119.855
  N      179.154     188.813     121.987
  C      178.738     189.291     123.118
  N      178.497     188.403     124.118
  C      178.508     190.729     123.347
  C      178.755     191.532     122.316
  O      176.428     196.944     122.127
  O      175.672     195.031     123.720
  H      178.101     192.324     117.008
  H      175.637     196.850     121.541
  H      178.149     191.080     124.305
  H      178.611     192.603     122.411
  H      180.431     191.627     119.531
  H      177.858     190.828     118.808
  H      176.869     192.584     120.208
  H      178.879     194.432     118.762
  H      178.606     187.419     123.910
  H      178.741     195.684     120.976
  H      178.031     188.658     124.980
  H      177.315     195.800     119.912
  P      175.258     192.358     118.020
  C      173.832     193.221     120.022
  O      173.978     193.123     118.610
  O      175.476     191.154     119.048
  O      175.121     191.875     116.609
  H      175.149     190.312     118.674
  H      172.934     193.756     120.251
  H      174.672     193.741     120.432
  H      173.780     192.239     120.444

 6  7  8  9  10  11  12  13  14  15  16  26  30  31  32  33  35 0
 6-311+G(2d,p)
 ****
 37  38 0
 6-311+G(2d,p)
 ****
 1  2  3  4  5  17  18  19  20  21  22  23  24  25 0
 3-21G
 ****
 27  28  29  34  36  39  40  41  42  43  44  45  46 0
 3-21G
 ****


