%nproc=1
%NoSave
%Mem=1900MB
#P OB98/GEN NMR

erre ene a

0 1
  C       -2.242    -505.619    -795.940
  O       -1.709    -506.759    -796.589
  P       -2.744    -507.800    -797.235
  C       -5.173    -508.458    -796.553
  O       -3.864    -508.094    -796.130
  C       -6.165    -508.227    -795.413
  O       -6.110    -506.855    -794.959
  C       -7.618    -508.469    -795.804
  O       -7.928    -509.854    -795.832
  C       -8.366    -507.700    -794.724
  O       -8.501    -508.486    -793.532
  C       -7.422    -506.505    -794.484
  N       -7.914    -505.268    -795.102
  C       -8.884    -504.574    -794.391
  O       -9.332    -504.967    -793.310
  N       -9.350    -503.425    -794.977
  C       -8.990    -502.952    -796.205
  O       -9.486    -501.950    -796.700
  C       -7.977    -503.745    -796.923
  C       -7.503    -504.852    -796.350
  O       -1.916    -509.167    -797.315
  O       -3.283    -507.396    -798.570
  H       -9.087    -507.989    -792.933
  H       -2.171    -509.667    -798.119
  H      -10.039    -502.896    -794.466
  H       -7.672    -503.398    -797.903
  H       -6.770    -505.456    -796.874
  H       -7.307    -506.324    -793.409
  H       -9.372    -507.418    -795.039
  H       -7.823    -508.010    -796.782
  H       -5.888    -508.877    -794.569
  H       -5.177    -509.518    -796.836
  H       -5.449    -507.862    -797.427
  P       -9.299    -510.282    -796.556
  C      -11.541    -508.965    -796.750
  O      -10.404    -509.280    -795.980
  O       -9.583    -511.687    -795.842
  O       -9.168    -510.346    -798.041
  H       -9.266    -511.702    -794.918
  H      -11.878    -509.827    -797.336
  H      -11.310    -508.138    -797.417
  H      -12.348    -508.664    -796.073
  H       -1.442    -505.018    -795.560
  H       -2.870    -505.930    -795.131
  H       -2.817    -505.047    -796.638

 3  4  5  6  7  8  9  10  11  12  13  23  28  29  30  31  32 0
 6-311+G(2d,p)
 ****
 33  34 0
 6-311+G(2d,p)
 ****
 1  2  14  15  16  17  18  19  20  21  22  24  25  26 0
 3-21G
 ****
 27  35  36  37  38  39  40  41  42  43  44  45 0
 3-21G
 ****


