%nproc=1
%NoSave
%Mem=1900MB
#P OB98/GEN NMR

erre ene a

0 1
  C       -4.366     141.075    -282.148
  O       -3.666     141.206    -283.373
  P       -2.893     139.912    -283.924
  C       -4.077     140.064    -286.236
  O       -3.835     139.291    -285.062
  C       -5.568     140.101    -286.550
  O       -6.266     140.845    -285.536
  C       -5.905     140.782    -287.865
  O       -5.642     139.925    -288.954
  C       -7.384     141.099    -287.669
  O       -8.205     139.985    -288.054
  C       -7.475     141.354    -286.145
  N       -7.682     142.755    -285.823
  C       -8.648     143.420    -286.590
  O       -9.248     142.820    -287.486
  N       -8.878     144.754    -286.349
  C       -8.201     145.364    -285.428
  N       -8.472     146.684    -285.229
  C       -7.157     144.708    -284.614
  C       -6.951     143.416    -284.864
  O       -3.026     138.869    -282.719
  O       -1.472     140.151    -284.316
  H       -9.127     140.315    -288.027
  H       -2.291     138.226    -282.731
  H       -6.622     145.264    -283.858
  H       -6.204     142.853    -284.317
  H       -8.305     140.780    -285.711
  H       -7.703     141.952    -288.274
  H       -5.340     141.719    -287.971
  H       -5.950     139.069    -286.541
  H       -9.187     147.108    -285.807
  H       -3.549     139.609    -287.080
  H       -8.016     147.241    -284.521
  H       -3.684     141.073    -286.081
  P       -4.757     140.497    -290.160
  C       -2.771     138.917    -289.789
  O       -3.238     140.248    -289.711
  O       -4.908     142.082    -289.964
  O       -5.121     140.065    -291.540
  H       -4.487     142.551    -290.709
  H       -1.692     138.910    -289.610
  H       -2.967     138.501    -290.783
  H       -3.261     138.301    -289.026
  H       -4.831     142.007    -281.902
  H       -3.681     140.803    -281.373
  H       -5.115     140.317    -282.244

 3  4  5  6  7  8  9  10  11  12  13  21  23  27  28  29  30  32 0
 6-311+G(2d,p)
 ****
 34  35 0
 6-311+G(2d,p)
 ****
 1  2  14  15  16  17  18  19  20  22  24  25  26 0
 3-21G
 ****
 31  33  36  37  38  39  40  41  42  43  44  45  46 0
 3-21G
 ****


