%nproc=1
%NoSave
%Mem=1900MB
#P OB98/GEN NMR

erre ene a

0 1
  C     -558.895     210.161    -107.555
  O     -559.507     208.882    -107.575
  P     -561.071     208.776    -107.260
  C     -562.396     207.572    -105.372
  O     -561.230     208.290    -105.736
  C     -562.023     206.200    -104.805
  O     -561.552     205.341    -105.882
  C     -560.927     206.240    -103.737
  O     -561.196     205.202    -102.790
  C     -559.680     205.892    -104.534
  O     -558.605     205.438    -103.724
  C     -560.256     204.841    -105.482
  N     -559.398     204.576    -106.633
  C     -558.240     203.841    -106.415
  O     -557.897     203.403    -105.315
  N     -557.427     203.666    -107.508
  C     -557.610     204.219    -108.739
  O     -556.782     204.123    -109.640
  C     -558.853     204.988    -108.915
  C     -559.678     205.128    -107.874
  O     -561.538     207.512    -108.115
  O     -561.862     210.006    -107.597
  H     -557.886     205.164    -104.323
  H     -561.966     207.798    -108.940
  H     -556.589     203.123    -107.370
  H     -559.041     205.420    -109.888
  H     -560.591     205.705    -107.968
  H     -560.433     203.903    -104.947
  H     -559.336     206.778    -105.083
  H     -560.843     207.206    -103.226
  H     -562.934     205.734    -104.398
  H     -563.025     207.436    -106.255
  H     -562.975     208.153    -104.639
  P     -560.715     205.423    -101.267
  C     -558.399     205.327    -100.055
  O     -559.115     205.349    -101.274
  O     -561.162     204.033    -100.610
  O     -561.332     206.621    -100.611
  H     -560.957     203.264    -101.173
  H     -558.950     204.781     -99.278
  H     -558.221     206.346     -99.724
  H     -557.441     204.831    -100.224
  H     -557.855     210.062    -107.784
  H     -559.007     210.595    -106.583
  H     -559.362     210.791    -108.283

 3  4  5  6  7  8  9  10  11  12  13  23  28  29  30  31  32 0
 6-311+G(2d,p)
 ****
 33  34 0
 6-311+G(2d,p)
 ****
 1  2  14  15  16  17  18  19  20  21  22  24  25  26 0
 3-21G
 ****
 27  35  36  37  38  39  40  41  42  43  44  45 0
 3-21G
 ****


