%nproc=1
%NoSave
%Mem=1900MB
#P OB98/GEN NMR

erre ene a

0 1
  C      373.800     107.778     307.639
  O      374.355     107.356     308.885
  P      375.723     106.522     308.867
  C      376.404     107.104     311.291
  O      376.064     106.069     310.372
  C      376.761     106.514     312.666
  O      375.561     105.951     313.260
  C      377.782     105.368     312.628
  O      379.165     105.694     312.710
  C      377.437     104.625     313.917
  O      378.084     105.257     315.038
  C      375.926     104.791     314.040
  N      374.758      99.910     315.038
  C      375.517     100.808     315.699
  N      375.777     102.092     315.363
  C      375.150     102.427     314.225
  C      374.340     101.614     313.446
  C      374.151     100.298     313.891
  N      373.388      99.375     313.214
  N      373.878     102.306     312.342
  C      374.416     103.505     312.447
  N      375.180     103.631     313.576
  O      376.851     107.132     308.111
  O      375.271     105.133     308.197
  H      377.849     104.734     315.825
  H      375.990     104.814     307.620
  H      375.979     100.454     316.615
  H      374.279     104.305     311.738
  H      375.607     104.980     315.071
  H      377.783     103.586     313.905
  H      377.606     104.716     311.765
  H      377.121     107.316     313.319
  H      375.560     107.792     311.395
  H      373.338      98.437     313.576
  H      372.976      99.625     312.325
  H      377.224     107.675     310.854
  P      380.256     104.947     311.801
  C      380.122     106.584     309.762
  O      380.873     106.077     310.848
  O      379.753     103.739     311.082
  O      381.435     104.664     312.837
  H      381.901     105.458     313.145
  H      380.621     107.480     309.382
  H      379.111     106.854     310.077
  H      380.084     105.841     308.964
  H      372.894     108.319     307.817
  H      373.590     106.921     307.033
  H      374.499     108.410     307.133

 3  4  5  6  7  8  9  10  11  12  22  25  29  30  31  32 0
 6-311+G(2d,p)
 ****
 33  36  37 0
 6-311+G(2d,p)
 ****
 1  2  13  14  15  16  17  18  19  20  21  23  24  26 0
 3-21G
 ****
 27  28  34  35  38  39  40  41  42  43  44  45  46  47  48 0
 3-21G
 ****


