%nproc=1
%NoSave
%Mem=1900MB
#P OB98/GEN NMR

erre ene a

0 1
  C     -102.670     223.119      58.858
  O     -101.677     222.644      59.783
  P     -100.337     221.965      59.213
  C     -100.656     219.544      60.155
  O     -100.601     220.393      59.020
  C     -100.455     218.084      59.735
  O     -101.688     217.528      59.231
  C      -99.443     217.891      58.611
  O      -98.108     217.995      59.075
  C      -99.807     216.494      58.119
  O      -99.198     215.482      58.940
  C     -101.340     216.485      58.293
  N     -102.051     216.643      57.031
  C     -102.078     215.532      56.193
  O     -101.493     214.483      56.448
  N     -102.780     215.680      55.025
  C     -103.383     216.827      54.591
  O     -103.978     216.905      53.524
  C     -103.251     217.992      55.479
  C     -102.599     217.846      56.637
  O      -99.381     221.981      60.501
  O      -99.689     222.667      58.065
  H      -99.529     215.624      59.848
  H      -98.449     222.018      60.214
  H     -102.836     214.879      54.418
  H     -103.694     218.926      55.165
  H     -102.493     218.699      57.305
  H     -101.661     215.544      58.760
  H      -99.479     216.314      57.089
  H      -99.635     218.614      57.809
  H     -100.155     217.508      60.621
  H     -101.631     219.645      60.636
  H      -99.878     219.850      60.866
  P      -97.302     219.323      58.661
  C      -97.567     218.771      56.120
  O      -97.799     219.673      57.179
  O      -95.822     218.735      58.478
  O      -97.418     220.411      59.672
  H      -95.831     217.824      58.138
  H      -97.598     217.731      56.460
  H      -96.586     218.979      55.676
  H      -98.338     218.917      55.356
  H     -103.491     223.539      59.401
  H     -103.018     222.304      58.259
  H     -102.240     223.868      58.226

 3  4  5  6  7  8  9  10  11  12  13  23  28  29  30  31  32 0
 6-311+G(2d,p)
 ****
 33  34 0
 6-311+G(2d,p)
 ****
 1  2  14  15  16  17  18  19  20  21  22  24  25  26 0
 3-21G
 ****
 27  35  36  37  38  39  40  41  42  43  44  45 0
 3-21G
 ****


