%nproc=1
%NoSave
%Mem=1900MB
#P OB98/GEN NMR

erre ene a

0 1
  C     -355.671     856.313     742.765
  O     -355.375     857.438     743.570
  H     -354.731     855.897     742.389
  H     -356.302     856.592     741.912
  H     -356.174     855.548     743.364
  P     -356.595     858.386     744.023
  C     -355.478     858.974     746.278
  O     -355.949     859.467     745.021
  C     -355.421     860.075     747.331
  O     -354.437     861.075     746.978
  C     -356.737     860.846     747.480
  O     -357.815     860.100     748.001
  C     -356.259     862.099     748.222
  O     -356.152     861.891     749.626
  C     -354.856     862.307     747.604
  N     -354.819     863.420     746.660
  C     -354.939     864.696     747.206
  O     -355.102     864.899     748.402
  N     -354.922     865.735     746.309
  C     -354.841     865.617     744.937
  O     -354.844     866.594     744.204
  C     -354.757     864.249     744.429
  C     -354.745     863.219     745.283
  O     -357.796     857.677     744.578
  O     -356.913     859.249     742.707
  H     -357.039     861.625     749.942
  H     -357.793     859.693     742.775
  H     -354.991     866.660     746.686
  H     -354.689     864.123     743.345
  H     -354.683     862.206     744.929
  H     -354.119     862.530     748.396
  H     -356.935     862.933     748.060
  H     -357.046     861.181     746.478
  H     -355.125     859.622     748.290
  H     -354.463     858.577     746.113
  H     -356.117     858.146     746.612
  P     -359.165     859.828     747.203
  C     -359.432     857.445     748.249
  O     -360.011     858.715     747.994
  O     -359.043     859.681     745.717
  O     -360.003     861.179     747.502
  H     -360.539     861.370     746.695
  H     -360.131     856.835     748.781
  H     -358.546     857.568     748.837
  H     -359.182     856.974     747.321

 6  7  8  9  10  11  12  13  14  15  16  26  31  32  33  34  35 0
 6-311+G(2d,p)
 ****
 36  37 0
 6-311+G(2d,p)
 ****
 1  2  3  4  5  17  18  19  20  21  22  23  24  25 0
 3-21G
 ****
 27  28  29  30  38  39  40  41  42  43  44  45 0
 3-21G
 ****


