%nproc=1
%NoSave
%Mem=1900MB
#P OB98/GEN NMR

erre ene a

0 1
  C      392.356     -66.193    -169.350
  O      391.350     -65.210    -169.224
  H      393.077     -66.060    -168.543
  H      392.873     -66.081    -170.306
  H      391.920     -67.194    -169.273
  P      390.156     -65.234    -170.305
  C      388.430     -64.031    -168.772
  O      389.237     -63.964    -169.943
  C      388.273     -62.636    -168.155
  O      389.491     -62.294    -167.453
  C      387.994     -61.537    -169.187
  O      386.982     -60.659    -168.680
  C      389.322     -60.804    -169.319
  O      389.152     -59.457    -169.734
  C      389.921     -60.996    -167.916
  N      391.391     -60.902    -167.936
  C      391.929     -59.717    -168.444
  O      391.196     -58.816    -168.858
  N      393.297     -59.600    -168.516
  C      394.056     -60.596    -168.176
  N      395.404     -60.426    -168.300
  C      393.523     -61.885    -167.685
  C      392.194     -61.964    -167.591
  O      389.279     -66.487    -169.837
  O      390.593     -65.302    -171.734
  H      390.033     -59.028    -169.753
  H      388.623     -66.751    -170.530
  H      394.192     -62.692    -167.426
  H      391.712     -62.872    -167.234
  H      389.536     -60.239    -167.223
  H      389.941     -61.317    -170.062
  H      387.678     -61.931    -170.147
  H      387.479     -62.678    -167.401
  H      395.725     -59.536    -168.651
  H      388.904     -64.708    -168.051
  H      396.078     -61.143    -168.088
  H      387.443     -64.418    -169.037
  P      385.897     -60.155    -169.756
  C      383.864     -60.207    -168.151
  O      384.720     -59.409    -168.952
  O      385.213     -61.510    -170.274
  O      386.495     -59.353    -170.882
  H      385.602     -61.787    -171.125
  H      383.134     -59.583    -167.678
  H      384.441     -60.710    -167.404
  H      383.371     -60.930    -168.767

 6  7  8  9  10  11  12  13  14  15  16  26  30  31  32  33  35 0
 6-311+G(2d,p)
 ****
 37  38 0
 6-311+G(2d,p)
 ****
 1  2  3  4  5  17  18  19  20  21  22  23  24  25 0
 3-21G
 ****
 27  28  29  34  36  39  40  41  42  43  44  45  46 0
 3-21G
 ****


