%nproc=1
%NoSave
%Mem=1900MB
#P OB98/GEN NMR

erre ene a

0 1
  C     -126.941     268.907    -196.554
  O     -126.073     267.814    -196.783
  H     -127.959     268.604    -196.816
  H     -126.654     269.759    -197.177
  H     -126.918     269.189    -195.498
  P     -124.514     268.064    -196.491
  C     -122.671     266.442    -195.703
  O     -123.877     266.589    -196.446
  C     -122.229     264.978    -195.688
  O     -123.023     264.268    -194.702
  C     -122.415     264.270    -197.032
  O     -121.322     263.381    -197.250
  C     -123.693     263.472    -196.842
  O     -123.758     262.335    -197.698
  C     -123.631     263.138    -195.352
  N     -126.722     259.548    -193.457
  C     -125.417     259.527    -193.799
  N     -124.663     260.539    -194.282
  C     -125.382     261.673    -194.358
  C     -126.721     261.846    -194.048
  C     -127.408     260.711    -193.583
  N     -128.744     260.716    -193.257
  N     -127.109     263.148    -194.299
  C     -126.021     263.753    -194.739
  N     -124.957     262.896    -194.807
  O     -124.206     268.930    -195.317
  O     -124.004     268.616    -197.904
  H     -124.597     261.863    -197.519
  H     -124.370     268.097    -198.643
  H     -124.910     258.574    -193.675
  H     -125.957     264.795    -195.031
  H     -123.026     262.245    -195.144
  H     -124.563     264.108    -197.058
  H     -122.494     264.970    -197.865
  H     -121.186     264.930    -195.352
  H     -122.819     266.793    -194.674
  H     -129.155     259.859    -192.917
  H     -129.267     261.579    -193.327
  H     -121.906     267.065    -196.178
  P     -120.184     263.807    -198.293
  C     -117.631     263.426    -198.273
  O     -118.916     262.841    -198.094
  O     -119.875     265.265    -198.364
  O     -120.785     263.288    -199.689
  H     -120.561     263.933    -200.391
  H     -116.876     262.684    -198.114
  H     -117.501     264.223    -197.571
  H     -117.550     263.810    -199.268

 6  7  8  9  10  11  12  13  14  15  25  28  32  33  34  35 0
 6-311+G(2d,p)
 ****
 36  39  40 0
 6-311+G(2d,p)
 ****
 1  2  3  4  5  16  17  18  19  20  21  22  23  24 0
 3-21G
 ****
 26  27  29  30  31  37  38  41  42  43  44  45  46  47 0
 3-21G
 ****
 48 0
 3-21G
 ****


