%nproc=1
%NoSave
%Mem=1900MB
#P OB98/GEN NMR

erre ene a

0 1
  C      233.863     -22.245    -142.175
  O      232.948     -21.570    -141.327
  P      233.217     -21.619    -139.744
  C      235.154     -19.879    -139.722
  O      234.757     -21.224    -139.525
  C      236.326     -19.523    -138.805
  O      236.768     -18.174    -139.117
  C      236.005     -19.560    -137.305
  O      237.202     -19.962    -136.629
  C      235.704     -18.106    -136.986
  O      235.847     -17.805    -135.603
  C      236.700     -17.403    -137.900
  N      238.149     -12.556    -137.951
  C      238.812     -13.673    -137.478
  N      240.061     -13.471    -137.003
  N      238.299     -14.876    -137.466
  C      237.050     -14.924    -137.988
  C      236.275     -13.887    -138.450
  C      236.867     -12.569    -138.489
  O      236.349     -11.567    -138.980
  N      235.026     -14.315    -138.813
  C      235.074     -15.621    -138.645
  N      236.295     -16.044    -138.190
  O      233.178     -23.187    -139.425
  O      232.260     -20.837    -138.900
  H      235.880     -16.829    -135.512
  H      232.287     -23.464    -139.136
  H      238.601     -11.656    -137.948
  H      234.265     -16.309    -138.841
  H      237.712     -17.360    -137.466
  H      234.670     -17.870    -137.277
  H      240.530     -12.576    -137.009
  H      235.178     -20.228    -137.052
  H      240.582     -14.277    -136.680
  H      237.160     -20.201    -139.034
  H      234.313     -19.220    -139.481
  H      235.422     -19.724    -140.773
  P      237.059     -20.951    -135.377
  C      237.373     -23.130    -136.746
  O      236.519     -22.354    -135.926
  O      235.793     -20.352    -134.593
  O      238.257     -21.013    -134.485
  H      235.900     -20.506    -133.638
  H      237.046     -24.172    -136.703
  H      238.411     -23.069    -136.410
  H      237.303     -22.780    -137.778
  H      233.559     -22.127    -143.194
  H      233.879     -23.286    -141.926
  H      234.841     -21.832    -142.045

 3  4  5  6  7  8  9  10  11  12  23  26  30  31 0
 6-311+G(2d,p)
 ****
 33  35  36  37  38 0
 6-311+G(2d,p)
 ****
 1  2  13  14  15  16  17  18  19  20  21  22  24  25 0
 3-21G
 ****
 27  28  29  32  34  39  40  41  42  43  44  45  46  47  48  49 0
 3-21G
 ****


