%nproc=1
%NoSave
%Mem=1900MB
#P OB98/GEN NMR

erre ene a

0 1
  C       15.989      47.313    -106.647
  O       16.895      47.015    -107.695
  P       16.751      45.658    -108.539
  C       15.541      47.010    -110.359
  O       15.496      45.863    -109.519
  C       15.301      46.621    -111.817
  O       14.019      45.959    -111.919
  C       15.282      47.811    -112.768
  O       15.871      47.419    -114.012
  C       13.804      48.077    -113.005
  O       13.588      48.723    -114.271
  C       13.221      46.665    -112.889
  N        8.345      45.731    -114.197
  C        9.501      45.584    -114.881
  N       10.759      45.876    -114.480
  C       10.760      46.315    -113.211
  C        9.661      46.510    -112.388
  C        8.402      46.200    -112.929
  N        7.225      46.337    -112.226
  N       10.053      47.004    -111.159
  C       11.363      47.082    -111.233
  N       11.839      46.667    -112.451
  O       16.706      44.412    -107.725
  O       17.997      45.673    -109.538
  H       13.628      48.027    -114.959
  H       18.358      44.772    -109.643
  H        9.405      45.182    -115.885
  H       12.012      47.440    -110.448
  H       13.283      46.124    -113.841
  H       13.420      48.738    -112.219
  H       15.801      48.686    -112.366
  H       16.069      45.896    -112.116
  H       16.530      47.468    -110.266
  H        6.385      45.976    -112.652
  H        7.281      46.520    -111.234
  H       14.790      47.735    -110.026
  P       16.588      48.595    -114.850
  C       18.836      48.345    -113.563
  O       17.726      49.155    -113.872
  O       15.603      49.580    -115.388
  O       17.368      47.750    -115.964
  H       17.553      46.834    -115.657
  H       19.477      48.883    -112.858
  H       19.417      48.138    -114.467
  H       18.513      47.407    -113.105
  H       16.248      48.254    -106.208
  H       16.040      46.546    -105.902
  H       14.995      47.364    -107.039

 3  4  5  6  7  8  9  10  11  12  22  25  29  30  31  32 0
 6-311+G(2d,p)
 ****
 33  36  37 0
 6-311+G(2d,p)
 ****
 1  2  13  14  15  16  17  18  19  20  21  23  24  26 0
 3-21G
 ****
 27  28  34  35  38  39  40  41  42  43  44  45  46  47  48 0
 3-21G
 ****


