%nproc=1
%NoSave
%Mem=1900MB
#P OB98/GEN NMR

erre ene a

0 1
  C     -532.256    -168.420    -650.206
  O     -532.148    -169.405    -651.212
  H     -531.410    -168.534    -649.514
  H     -533.184    -168.557    -649.644
  H     -532.219    -167.415    -650.637
  P     -533.159    -169.348    -652.460
  C     -531.272    -169.574    -654.212
  O     -532.459    -170.146    -653.661
  C     -530.452    -170.635    -654.950
  O     -529.797    -171.492    -653.952
  C     -531.278    -171.572    -655.860
  O     -530.417    -171.973    -656.941
  C     -531.565    -172.726    -654.920
  O     -532.092    -173.849    -655.576
  C     -530.183    -172.858    -654.256
  N     -530.142    -173.688    -653.057
  C     -529.921    -175.055    -653.222
  O     -529.763    -175.607    -654.316
  N     -529.906    -175.804    -652.063
  C     -530.060    -175.323    -650.803
  O     -529.995    -176.022    -649.808
  C     -530.287    -173.867    -650.685
  C     -530.310    -173.132    -651.801
  O     -533.675    -167.995    -652.810
  O     -534.344    -170.340    -652.026
  H     -535.108    -169.818    -651.719
  H     -532.349    -174.517    -654.910
  H     -529.735    -176.784    -652.175
  H     -530.436    -173.465    -649.696
  H     -530.480    -172.062    -651.754
  H     -529.470    -173.235    -654.984
  H     -532.325    -172.430    -654.180
  H     -532.168    -171.076    -656.270
  H     -529.649    -170.137    -655.506
  H     -530.678    -169.148    -653.397
  H     -531.550    -168.768    -654.908
  P     -530.947    -172.731    -658.258
  C     -530.327    -170.939    -660.025
  O     -530.053    -172.241    -659.506
  O     -532.417    -172.599    -658.483
  O     -530.532    -174.267    -658.057
  H     -531.136    -174.836    -658.563
  H     -529.670    -170.736    -660.845
  H     -530.175    -170.210    -659.257
  H     -531.342    -170.896    -660.362

 6  7  8  9  10  11  12  13  14  15  16  27  31  32  33  34  35 0
 6-311+G(2d,p)
 ****
 36  37 0
 6-311+G(2d,p)
 ****
 1  2  3  4  5  17  18  19  20  21  22  23  24  25 0
 3-21G
 ****
 26  28  29  30  38  39  40  41  42  43  44  45 0
 3-21G
 ****


