%nproc=1
%NoSave
%Mem=1900MB
#P OB98/GEN NMR

erre ene a

0 1
  C      -99.143     154.057    -172.635
  O      -99.369     155.439    -172.834
  P      -98.395     156.302    -173.762
  C      -99.934     156.402    -175.806
  O      -98.704     155.910    -175.290
  C      -99.847     156.643    -177.311
  O      -98.841     157.662    -177.570
  C      -99.467     155.406    -178.139
  O     -100.153     155.521    -179.391
  C      -97.976     155.596    -178.361
  O      -97.481     154.855    -179.472
  C      -97.917     157.110    -178.532
  N      -93.212     157.622    -180.464
  C      -94.307     156.979    -180.923
  N      -95.517     156.867    -180.336
  C      -95.535     157.510    -179.160
  C      -94.489     158.182    -178.545
  C      -93.279     158.241    -179.260
  N      -92.162     158.921    -178.822
  N      -94.881     158.660    -177.309
  C      -96.138     158.286    -177.184
  N      -96.592     157.643    -178.302
  O      -96.951     156.253    -173.388
  O      -98.970     157.791    -173.649
  H      -97.774     153.929    -179.377
  H      -98.380     158.332    -173.089
  H      -94.201     156.496    -181.890
  H      -96.756     158.447    -176.313
  H      -98.237     157.428    -179.531
  H      -97.427     155.273    -177.468
  H      -99.703     154.458    -177.654
  H     -100.808     157.049    -177.651
  H     -100.160     157.346    -175.301
  H      -91.398     159.011    -179.472
  H      -92.266     159.604    -178.074
  H     -100.740     155.690    -175.586
  P     -100.962     154.265    -179.978
  C     -103.139     155.500    -180.500
  O     -102.509     154.537    -179.676
  O     -100.452     152.927    -179.556
  O     -100.858     154.463    -181.565
  H     -101.069     153.623    -182.011
  H     -102.900     156.504    -180.139
  H     -104.223     155.354    -180.456
  H     -102.811     155.407    -181.542
  H      -99.898     153.662    -171.988
  H      -98.180     153.913    -172.190
  H      -99.180     153.550    -173.577

 3  4  5  6  7  8  9  10  11  12  22  25  29  30  31  32 0
 6-311+G(2d,p)
 ****
 33  36  37 0
 6-311+G(2d,p)
 ****
 1  2  13  14  15  16  17  18  19  20  21  23  24  26 0
 3-21G
 ****
 27  28  34  35  38  39  40  41  42  43  44  45  46  47  48 0
 3-21G
 ****


