%nproc=1
%NoSave
%Mem=1900MB
#P OB98/GEN NMR

erre ene a

0 1
  C     -927.149    -894.610    -493.128
  O     -927.345    -895.818    -492.426
  H     -926.074    -894.462    -493.273
  H     -927.539    -893.776    -492.545
  H     -927.628    -894.634    -494.112
  P     -928.829    -896.424    -492.339
  C     -928.226    -898.906    -491.996
  O     -928.742    -897.930    -492.890
  C     -926.785    -899.277    -492.371
  O     -925.979    -898.063    -492.392
  C     -926.123    -900.259    -491.381
  O     -925.191    -901.045    -492.136
  C     -925.384    -899.309    -490.459
  O     -924.382    -899.977    -489.719
  C     -924.891    -898.261    -491.457
  N     -924.505    -897.003    -490.806
  C     -923.224    -896.530    -491.083
  O     -922.426    -897.132    -491.809
  N     -922.862    -895.363    -490.473
  C     -923.622    -894.680    -489.565
  O     -923.233    -893.650    -489.016
  C     -924.949    -895.243    -489.281
  C     -925.318    -896.359    -489.904
  O     -929.905    -895.596    -492.957
  O     -929.075    -896.646    -490.771
  H     -924.715    -900.848    -489.419
  H     -930.020    -896.546    -490.562
  H     -921.947    -895.006    -490.664
  H     -925.572    -894.726    -488.564
  H     -926.295    -896.804    -489.709
  H     -924.028    -898.624    -492.021
  H     -926.078    -898.853    -489.739
  H     -926.829    -900.896    -490.866
  H     -926.781    -899.679    -493.390
  H     -928.863    -899.793    -492.066
  H     -928.262    -898.522    -490.975
  P     -925.541    -902.520    -492.640
  C     -924.711    -902.633    -495.077
  O     -925.842    -902.486    -494.215
  O     -926.589    -903.221    -491.845
  O     -924.151    -903.326    -492.546
  H     -924.325    -904.276    -492.404
  H     -925.032    -902.595    -496.097
  H     -924.238    -903.574    -494.887
  H     -924.016    -901.841    -494.892

 6  7  8  9  10  11  12  13  14  15  16  26  31  32  33  34  35 0
 6-311+G(2d,p)
 ****
 36  37 0
 6-311+G(2d,p)
 ****
 1  2  3  4  5  17  18  19  20  21  22  23  24  25 0
 3-21G
 ****
 27  28  29  30  38  39  40  41  42  43  44  45 0
 3-21G
 ****


