%nproc=1
%NoSave
%Mem=1900MB
#P OB98/GEN NMR

erre ene a

0 1
  C      -49.579    -115.728     -11.031
  O      -48.978    -115.673      -9.754
  H      -48.837    -115.441     -11.782
  H      -50.419    -115.031     -11.083
  H      -49.921    -116.742     -11.247
  P      -49.893    -116.104      -8.509
  C      -48.719    -118.422      -8.375
  O      -49.942    -117.708      -8.521
  C      -49.006    -119.849      -7.918
  O      -49.593    -119.823      -6.598
  C      -50.006    -120.594      -8.795
  O      -49.404    -121.094      -9.978
  C      -50.473    -121.691      -7.843
  O      -49.567    -122.802      -7.831
  C      -50.450    -120.980      -6.484
  N      -54.647    -122.517      -4.031
  C      -53.456    -123.115      -4.246
  N      -52.377    -122.629      -4.896
  C      -52.616    -121.383      -5.342
  C      -53.783    -120.649      -5.203
  C      -54.836    -121.264      -4.511
  N      -56.063    -120.669      -4.324
  N      -53.662    -119.427      -5.837
  C      -52.441    -119.420      -6.336
  N      -51.775    -120.579      -6.054
  O      -51.362    -115.676      -8.979
  O      -49.521    -115.488      -7.201
  H      -48.665    -122.427      -7.865
  H      -51.572    -114.788      -8.631
  H      -53.356    -124.120      -3.846
  H      -52.006    -118.610      -6.909
  H      -50.033    -121.615      -5.693
  H      -51.452    -122.074      -8.131
  H      -50.856    -119.948      -9.036
  H      -48.058    -120.394      -7.861
  H      -48.097    -117.920      -7.622
  H      -48.191    -118.421      -9.333
  H      -56.779    -121.180      -3.838
  H      -56.248    -119.781      -4.769
  P      -50.209    -120.965     -11.356
  C      -49.233    -118.820     -12.457
  O      -50.300    -119.404     -11.721
  O      -51.709    -121.344     -10.945
  O      -49.698    -121.831     -12.459
  H      -51.905    -122.268     -11.192
  H      -49.438    -117.783     -12.621
  H      -49.136    -119.317     -13.399
  H      -48.322    -118.920     -11.905

 6  7  8  9  10  11  12  13  14  15  25  28  32  33  34  35 0
 6-311+G(2d,p)
 ****
 36  37  40 0
 6-311+G(2d,p)
 ****
 1  2  3  4  5  16  17  18  19  20  21  22  23  24 0
 3-21G
 ****
 26  27  29  30  31  38  39 41  42  43  44  45  46  47  48 0
 3-21G
 ****


