%nproc=1
%NoSave
%Mem=1900MB
#P OB98/GEN NMR

erre ene a

0 1
  C     -332.715    -248.206     388.385
  O     -332.023    -248.602     387.209
  P     -331.763    -247.556     386.018
  C     -329.327    -247.304     386.805
  O     -330.533    -246.627     386.483
  C     -328.244    -246.986     385.770
  O     -328.013    -245.557     385.768
  C     -326.903    -247.665     386.074
  O     -326.285    -248.022     384.837
  C     -326.060    -246.568     386.724
  O     -324.659    -246.810     386.530
  C     -326.613    -245.317     386.026
  N     -323.827    -241.099     386.967
  C     -323.684    -242.081     386.049
  N     -324.450    -243.181     385.872
  C     -325.479    -243.197     386.738
  C     -325.750    -242.262     387.726
  C     -324.861    -241.174     387.834
  N     -325.011    -240.166     388.762
  N     -326.874    -242.618     388.448
  C     -327.287    -243.740     387.886
  N     -326.481    -244.119     386.842
  O     -332.970    -246.808     385.562
  O     -331.129    -248.436     384.844
  H     -324.419    -247.557     387.119
  H     -331.467    -248.131     383.981
  H     -322.853    -241.972     385.362
  H     -328.151    -244.317     388.194
  H     -326.114    -245.143     385.064
  H     -326.262    -246.549     387.800
  H     -327.003    -248.542     386.721
  H     -328.601    -247.272     384.782
  H     -329.522    -248.386     386.802
  H     -324.400    -239.360     388.688
  H     -325.879    -240.128     389.292
  H     -329.001    -247.015     387.815
  P     -325.153    -249.177     384.928
  C     -326.813    -250.854     383.824
  O     -325.973    -250.556     384.914
  O     -324.214    -248.954     386.077
  O     -324.482    -249.072     383.477
  H     -325.111    -248.691     382.825
  H     -327.315    -251.820     384.016
  H     -326.228    -250.954     382.906
  H     -327.578    -250.081     383.699
  H     -332.787    -249.038     389.054
  H     -333.698    -247.872     388.125
  H     -332.182    -247.410     388.862

 3  4  5  6  7  8  9  10  11  12  22  25  29  30  31  32 0
 6-311+G(2d,p)
 ****
 33  36  37 0
 6-311+G(2d,p)
 ****
 1  2  13  14  15  16  17  18  19  20  21  23  24  26 0
 3-21G
 ****
 27  28  34  35  38  39  40  41  42  43  44  45  46  47  48 0
 3-21G
 ****


