%nproc=1
%NoSave
%Mem=1900MB
#P OB98/GEN NMR

erre ene a

0 1
  C       14.776    -431.930    -792.913
  O       13.519    -432.528    -792.703
  P       12.196    -431.637    -792.512
  C       10.707    -432.367    -790.526
  O       11.093    -432.618    -791.885
  C        9.199    -432.615    -790.349
  O        8.436    -431.628    -791.035
  C        8.727    -433.967    -790.869
  O        9.097    -435.017    -789.986
  C        7.226    -433.727    -790.991
  O        6.572    -433.901    -789.725
  C        7.185    -432.233    -791.432
  N        6.928    -432.089    -792.844
  C        5.579    -432.189    -793.251
  O        4.702    -432.422    -792.407
  N        5.261    -432.055    -794.589
  C        6.219    -431.878    -795.446
  N        5.858    -431.762    -796.761
  C        7.653    -431.786    -795.088
  C        7.924    -431.910    -793.783
  O       11.759    -430.865    -793.717
  O       12.573    -430.692    -791.258
  H        5.604    -433.786    -789.908
  H       13.215    -429.979    -791.533
  H        8.411    -431.640    -795.829
  H        8.961    -431.853    -793.413
  H        6.384    -431.698    -790.871
  H        6.767    -434.403    -791.717
  H        9.161    -434.140    -791.867
  H        8.986    -432.538    -789.263
  H        4.869    -431.865    -796.967
  H       10.922    -431.324    -790.319
  H        6.520    -431.656    -797.520
  H       11.310    -432.991    -789.871
  P        9.638    -436.404    -790.573
  C        7.787    -437.860    -789.544
  O        9.190    -437.565    -789.568
  O       11.093    -436.419    -790.926
  O        8.726    -436.663    -791.871
  H        9.289    -436.959    -792.592
  H        7.653    -438.848    -789.082
  H        7.363    -437.850    -790.542
  H        7.274    -437.107    -788.908
  H       15.521    -432.692    -793.015
  H       15.017    -431.305    -792.079
  H       14.745    -431.339    -793.804

 3  4  5  6  7  8  9  10  11  12  13  23  27  28  29  30  32 0
 6-311+G(2d,p)
 ****
 34  35 0
 6-311+G(2d,p)
 ****
 1  2  14  15  16  17  18  19  20  21  22  24  25  26 0
 3-21G
 ****
 31  33  36  37  38  39  40  41  42  43  44  45  46 0
 3-21G
 ****


