%nproc=1
%NoSave
%Mem=1900MB
#P OB98/GEN NMR

erre ene a

0 1
  C     -387.790     312.705     210.477
  O     -388.036     314.022     209.968
  P     -387.901     315.332     210.890
  C     -386.011     316.492     209.580
  O     -387.365     316.582     210.023
  C     -385.515     317.774     208.901
  O     -386.169     317.959     207.613
  C     -385.740     319.068     209.699
  O     -384.661     319.937     209.351
  C     -387.046     319.579     209.118
  O     -387.278     320.962     209.378
  C     -386.860     319.229     207.650
  N     -391.046     321.820     206.207
  C     -389.882     322.230     206.753
  N     -388.796     321.488     207.076
  C     -388.976     320.197     206.736
  C     -390.105     319.634     206.154
  C     -391.182     320.505     205.902
  N     -392.388     320.086     205.388
  N     -389.937     318.272     205.987
  C     -388.736     318.018     206.456
  N     -388.110     319.157     206.917
  O     -387.143     315.103     212.163
  O     -389.416     315.740     211.225
  H     -386.629     321.476     208.857
  H     -389.491     315.939     212.179
  H     -389.809     323.294     206.971
  H     -388.270     317.035     206.511
  H     -386.219     319.971     207.146
  H     -387.884     319.017     209.565
  H     -385.779     318.905     210.782
  H     -384.444     317.636     208.681
  H     -385.927     315.649     208.888
  H     -393.134     320.774     205.316
  H     -392.562     319.096     205.267
  H     -385.370     316.264     210.448
  P     -383.615     320.473     210.455
  C     -381.708     320.646     208.748
  O     -382.527     321.355     209.665
  O     -383.044     319.416     211.344
  O     -384.436     321.565     211.288
  H     -384.001     321.716     212.146
  H     -380.947     320.083     209.291
  H     -381.224     321.365     208.082
  H     -382.305     319.954     208.137
  H     -387.937     311.988     209.697
  H     -388.466     312.501     211.281
  H     -386.783     312.643     210.833

 3  4  5  6  7  8  9  10  11  12  22  25  29  30  31  32 0
 6-311+G(2d,p)
 ****
 33  36  37 0
 6-311+G(2d,p)
 ****
 1  2  13  14  15  16  17  18  19  20  21  23  24  26 0
 3-21G
 ****
 27  28  34  35  38  39  40  41  42  43  44  45  46  47  48 0
 3-21G
 ****


