%nproc=1
%NoSave
%Mem=1900MB
#P OB98/GEN NMR

erre ene a

0 1
  C     -182.806     274.387     343.162
  O     -181.865     273.969     344.131
  H     -183.000     273.556     342.480
  H     -182.409     275.230     342.589
  H     -183.745     274.675     343.644
  P     -181.459     275.047     345.248
  C     -179.134     276.180     344.978
  O     -180.481     276.097     344.530
  C     -178.294     275.111     344.285
  O     -178.716     274.972     342.908
  C     -176.810     275.435     344.225
  O     -176.149     275.180     345.451
  C     -176.356     274.530     343.093
  O     -176.106     273.197     343.555
  C     -177.565     274.546     342.147
  N     -176.729     274.710     337.112
  C     -176.982     273.683     337.951
  N     -177.208     273.723     339.281
  C     -177.179     274.992     339.727
  C     -176.940     276.139     338.989
  C     -176.709     275.966     337.617
  N     -176.427     277.009     336.765
  N     -176.954     277.251     339.809
  C     -177.207     276.788     341.014
  N     -177.354     275.429     341.015
  O     -180.486     274.217     346.212
  O     -182.602     275.647     345.995
  H     -176.961     272.858     343.885
  H     -180.979     273.928     347.001
  H     -176.997     272.696     337.498
  H     -177.283     277.388     341.914
  H     -177.790     273.551     341.746
  H     -175.439     274.902     342.640
  H     -176.664     276.480     343.919
  H     -178.465     274.153     344.789
  H     -179.101     276.022     346.062
  H     -178.746     277.181     344.752
  H     -176.206     276.804     335.806
  H     -176.295     277.934     337.152
  P     -174.705     275.836     345.673
  C     -172.713     274.153     345.743
  O     -173.635     274.888     344.949
  O     -174.416     275.614     347.232
  O     -174.612     277.275     345.291
  H     -173.924     276.378     347.589
  H     -172.075     273.576     345.107
  H     -173.249     273.499     346.398
  H     -172.121     274.831     346.322

 6  7  8  9  10  11  12  13  14  15  25  28  32  33  34  35 0
 6-311+G(2d,p)
 ****
 36  37  40 0
 6-311+G(2d,p)
 ****
 1  2  3  4  5  16  17  18  19  20  21  22  23  24 0
 3-21G
 ****
 26  27  29  30  31  38  39 41  42  43  44  45  46  47  48 0
 3-21G
 ****


