%nproc=1
%NoSave
%Mem=1900MB
#P OB98/GEN NMR

erre ene a

0 1
  C      246.456    -399.626    -286.125
  O      246.477    -399.948    -287.498
  H      245.555    -399.042    -285.916
  H      247.332    -399.021    -285.871
  H      246.438    -400.534    -285.512
  P      247.615    -400.980    -287.979
  C      246.176    -402.223    -289.748
  O      246.845    -402.294    -288.500
  C      244.796    -402.874    -289.643
  O      243.948    -402.100    -288.758
  C      244.052    -402.975    -290.966
  O      244.460    -404.110    -291.719
  C      242.621    -403.130    -290.472
  O      242.405    -404.480    -290.012
  C      242.590    -402.152    -289.288
  N      238.598    -399.124    -290.055
  C      238.645    -400.463    -289.720
  N      237.458    -401.089    -289.577
  N      239.755    -401.136    -289.545
  C      240.866    -400.383    -289.726
  C      240.952    -399.047    -290.060
  C      239.715    -398.316    -290.242
  O      239.617    -397.127    -290.518
  N      242.254    -398.631    -290.158
  C      242.958    -399.722    -289.894
  N      242.161    -400.811    -289.636
  O      248.281    -401.463    -286.606
  O      248.638    -400.419    -288.909
  H      241.510    -404.502    -289.621
  H      249.235    -401.596    -286.746
  H      237.718    -398.661    -290.189
  H      244.038    -399.763    -289.883
  H      241.936    -402.502    -288.479
  H      241.880    -402.939    -291.250
  H      236.568    -400.649    -289.746
  H      244.134    -402.048    -291.556
  H      237.462    -402.064    -289.296
  H      244.922    -403.864    -289.194
  H      246.769    -402.755    -290.502
  H      246.079    -401.174    -290.045
  P      245.353    -403.858    -293.030
  C      247.282    -405.585    -292.831
  O      246.852    -404.246    -292.616
  O      245.405    -402.253    -293.129
  O      244.833    -404.479    -294.281
  H      245.588    -401.984    -294.046
  H      248.297    -405.690    -292.508
  H      247.213    -405.819    -293.873
  H      246.659    -406.253    -292.274

 6  7  8  9  10  11  12  13  14  15  26  29  33  34 0
 6-311+G(2d,p)
 ****
 36  38  39  40  41 0
 6-311+G(2d,p)
 ****
 1  2  3  4  5  16  17  18  19  20  21  22  23  24  25 0
 3-21G
 ****
 27  28  30  31  32  35  37  42  43  44  45  46  47 0
 3-21G
 ****
 48  49 0
 3-21G
 ****


