%nproc=1
%NoSave
%Mem=1900MB
#P OB98/GEN NMR

erre ene a

0 1
  C     -189.959     108.121    -392.904
  O     -188.606     108.075    -392.500
  H     -190.447     107.194    -392.588
  H     -190.025     108.202    -393.993
  H     -190.467     108.966    -392.432
  P     -187.693     109.361    -392.844
  C     -187.784     109.192    -395.440
  O     -188.226     109.879    -394.273
  C     -188.170     109.980    -396.696
  O     -189.613     109.978    -396.831
  C     -187.704     111.443    -396.666
  O     -187.180     111.799    -397.949
  C     -188.972     112.225    -396.366
  O     -188.911     113.567    -396.861
  C     -190.057     111.337    -396.992
  N     -191.361     111.551    -396.367
  C     -192.133     112.609    -396.860
  O     -191.702     113.321    -397.774
  N     -193.348     112.876    -396.278
  C     -193.736     112.183    -395.255
  N     -194.940     112.506    -394.706
  C     -192.935     111.092    -394.665
  C     -191.772     110.824    -395.269
  O     -186.271     108.709    -393.176
  O     -187.649     110.408    -391.777
  H     -188.248     114.055    -396.321
  H     -185.557     109.395    -393.198
  H     -193.287     110.548    -393.799
  H     -191.115     110.039    -394.905
  H     -190.148     111.545    -398.070
  H     -189.120     112.278    -395.281
  H     -186.947     111.631    -395.908
  H     -187.769     109.455    -397.575
  H     -195.456     113.268    -395.130
  H     -188.245     108.204    -395.468
  H     -195.323     112.051    -393.892
  H     -186.692     109.087    -395.402
  P     -185.775     111.124    -398.346
  C     -184.319     113.273    -398.424
  O     -184.603     112.054    -397.746
  O     -185.679     111.360    -399.925
  O     -185.676     109.681    -397.968
  H     -185.944     110.550    -400.405
  H     -183.526     113.785    -397.920
  H     -185.194     113.889    -398.431
  H     -184.024     113.061    -399.431

 6  7  8  9  10  11  12  13  14  15  16  26  30  31  32  33  35 0
 6-311+G(2d,p)
 ****
 37  38 0
 6-311+G(2d,p)
 ****
 1  2  3  4  5  17  18  19  20  21  22  23  24  25 0
 3-21G
 ****
 27  28  29  34  36  39  40  41  42  43  44  45  46 0
 3-21G
 ****


