%nproc=1
%NoSave
%Mem=1900MB
#P OB98/GEN NMR

erre ene a

0 1
  C       73.661     167.152     -57.053
  O       72.826     168.212     -57.482
  H       73.691     166.388     -57.834
  H       73.259     166.700     -56.138
  H       74.675     167.520     -56.876
  P       72.618     169.428     -56.453
  C       71.553     171.782     -56.659
  O       71.898     170.570     -57.322
  C       71.148     172.850     -57.676
  O       72.303     173.305     -58.406
  C       70.135     172.377     -58.719
  O       68.818     172.449     -58.204
  C       70.364     173.399     -59.823
  O       69.648     174.612     -59.509
  C       71.883     173.651     -59.752
  N       74.175     173.711     -64.351
  C       73.298     174.571     -63.773
  N       72.688     174.460     -62.571
  C       73.066     173.338     -61.937
  C       73.947     172.372     -62.410
  C       74.523     172.589     -63.675
  N       75.416     171.716     -64.261
  N       74.099     171.350     -61.489
  C       73.362     171.725     -60.458
  N       72.688     172.899     -60.695
  O       73.830     169.843     -55.691
  O       71.414     168.863     -55.557
  H       68.701     174.380     -59.452
  H       70.755     168.412     -56.116
  H       73.052     175.451     -64.354
  H       73.297     171.197     -59.512
  H       72.124     174.714     -59.907
  H       69.998     173.060     -60.795
  H       70.383     171.377     -59.097
  H       70.754     173.713     -57.117
  H       72.401     172.141     -56.061
  H       75.619     171.858     -65.236
  H       75.567     170.828     -63.811
  H       70.720     171.563     -55.984
  P       67.629     171.574     -58.842
  C       65.331     170.770     -58.002
  O       66.467     171.589     -57.734
  O       68.045     170.226     -59.324
  O       67.033     172.499     -60.000
  H       66.492     171.956     -60.611
  H       64.629     170.861     -57.200
  H       65.640     169.750     -58.092
  H       64.872     171.085     -58.916

 6  7  8  9  10  11  12  13  14  15  25  28  32  33  34  35 0
 6-311+G(2d,p)
 ****
 36  39  40 0
 6-311+G(2d,p)
 ****
 1  2  3  4  5  16  17  18  19  20  21  22  23  24 0
 3-21G
 ****
 26  27  29  30  31  37  38  41  42  43  44  45  46  47 0
 3-21G
 ****
 48 0
 3-21G
 ****


