%nproc=1
%NoSave
%Mem=1900MB
#P OB98/GEN NMR

erre ene a

0 1
  C     -176.245    -301.774    -107.563
  O     -175.812    -302.724    -106.591
  P     -175.654    -302.422    -105.032
  C     -174.045    -300.978    -103.545
  O     -174.382    -301.471    -104.835
  C     -172.846    -300.011    -103.562
  O     -171.647    -300.734    -103.945
  C     -173.051    -298.922    -104.615
  O     -173.824    -297.775    -104.313
  C     -171.653    -298.609    -105.123
  O     -171.052    -297.508    -104.442
  C     -170.877    -299.900    -104.838
  N     -167.247    -301.252    -108.179
  C     -167.160    -300.399    -107.093
  N     -165.971    -299.790    -106.898
  N     -168.157    -300.157    -106.285
  C     -169.312    -300.762    -106.646
  C     -169.525    -301.611    -107.709
  C     -168.400    -301.919    -108.567
  O     -168.417    -302.676    -109.534
  N     -170.835    -302.016    -107.773
  C     -171.416    -301.395    -106.767
  N     -170.530    -300.625    -106.046
  O     -175.757    -303.606    -104.132
  O     -176.907    -301.456    -104.711
  H     -170.147    -297.400    -104.789
  H     -177.179    -301.649    -103.792
  H     -166.440    -301.422    -108.755
  H     -172.467    -301.475    -106.512
  H     -169.930    -299.687    -104.321
  H     -171.678    -298.338    -106.187
  H     -165.206    -299.841    -107.550
  H     -173.572    -299.391    -105.463
  H     -165.968    -299.005    -106.242
  H     -172.653    -299.615    -102.564
  H     -173.823    -301.851    -102.924
  H     -174.910    -300.489    -103.096
  P     -175.358    -297.536    -104.702
  C     -176.691    -296.739    -106.743
  O     -175.403    -296.922    -106.178
  O     -175.799    -296.293    -103.794
  O     -176.258    -298.708    -104.476
  H     -176.770    -296.225    -103.758
  H     -176.592    -296.619    -107.825
  H     -177.147    -295.835    -106.323
  H     -177.332    -297.600    -106.537
  H     -176.263    -302.234    -108.529
  H     -175.570    -300.944    -107.576
  H     -177.227    -301.431    -107.314

 3  4  5  6  7  8  9  10  11  12  23  26  30  31 0
 6-311+G(2d,p)
 ****
 33  35  36  37  38 0
 6-311+G(2d,p)
 ****
 1  2  13  14  15  16  17  18  19  20  21  22  24  25 0
 3-21G
 ****
 27  28  29  32  34  39  40  41  42  43  44  45  46  47  48  49 0
 3-21G
 ****


