%nproc=1
%NoSave
%Mem=1900MB
#P OB98/GEN NMR

erre ene a

0 1
  C     -226.604     155.799    -490.382
  O     -226.829     157.170    -490.105
  P     -228.320     157.752    -490.055
  C     -228.435     157.215    -487.531
  O     -229.025     157.017    -488.816
  C     -229.501     157.472    -486.469
  O     -230.224     158.692    -486.748
  C     -230.560     156.381    -486.385
  O     -230.046     155.252    -485.687
  C     -231.675     157.113    -485.653
  O     -231.462     157.121    -484.235
  C     -231.562     158.535    -486.244
  N     -232.567     158.808    -487.259
  C     -233.538     159.756    -486.913
  O     -233.527     160.284    -485.808
  N     -234.520     160.059    -487.827
  C     -234.548     159.427    -488.977
  N     -235.556     159.766    -489.833
  C     -233.566     158.407    -489.351
  C     -232.612     158.141    -488.457
  O     -229.073     157.699    -491.345
  O     -228.104     159.247    -489.504
  H     -231.838     156.286    -483.903
  H     -227.733     159.833    -490.206
  H     -233.636     157.900    -490.309
  H     -231.854     157.391    -488.652
  H     -231.677     159.291    -485.435
  H     -232.658     156.646    -485.828
  H     -230.888     156.097    -487.385
  H     -228.995     157.589    -485.502
  H     -236.230     160.456    -489.524
  H     -227.770     158.096    -487.597
  H     -235.687     159.315    -490.727
  H     -227.825     156.345    -487.270
  P     -230.730     153.810    -485.892
  C     -229.654     153.063    -488.105
  O     -230.823     153.531    -487.472
  O     -231.996     153.590    -485.128
  O     -229.597     152.789    -485.414
  H     -230.013     152.108    -484.854
  H     -229.916     152.606    -489.051
  H     -229.143     152.317    -487.472
  H     -228.968     153.903    -488.285
  H     -225.552     155.601    -490.373
  H     -227.003     155.560    -491.345
  H     -227.086     155.201    -489.637

 3  4  5  6  7  8  9  10  11  12  13  23  27  28  29  30  32 0
 6-311+G(2d,p)
 ****
 34  35 0
 6-311+G(2d,p)
 ****
 1  2  14  15  16  17  18  19  20  21  22  24  25  26 0
 3-21G
 ****
 31  33  36  37  38  39  40  41  42  43  44  45  46 0
 3-21G
 ****


