%nproc=1
%NoSave
%Mem=1900MB
#P OB98/GEN NMR

erre ene a

0 1
  C      -77.560     187.548    -473.741
  O      -77.182     188.822    -473.230
  P      -77.687     189.209    -471.755
  C      -79.526     190.697    -472.830
  O      -79.224     189.641    -471.925
  C      -80.893     191.299    -472.510
  O      -81.900     190.269    -472.495
  C      -80.984     191.983    -471.154
  O      -80.464     193.306    -471.185
  C      -82.486     192.006    -470.943
  O      -83.070     193.085    -471.700
  C      -82.912     190.654    -471.527
  N      -86.050     188.574    -468.066
  C      -86.180     189.661    -468.860
  N      -85.294     190.155    -469.750
  C      -84.159     189.432    -469.742
  C      -83.871     188.328    -468.959
  C      -84.883     187.887    -468.091
  N      -84.758     186.767    -467.297
  N      -82.604     187.859    -469.232
  C      -82.138     188.658    -470.171
  N      -83.049     189.618    -470.522
  O      -76.941     190.604    -471.474
  O      -77.398     188.195    -470.702
  H      -82.802     192.955    -472.633
  H      -76.869     190.751    -470.513
  H      -87.123     190.188    -468.779
  H      -81.163     188.574    -470.627
  H      -83.866     190.718    -472.069
  H      -82.767     192.167    -469.897
  H      -80.510     191.375    -470.370
  H      -81.146     192.004    -473.316
  H      -79.538     190.304    -473.846
  H      -85.589     186.415    -466.850
  H      -83.973     186.149    -467.469
  H      -78.745     191.462    -472.757
  P      -79.431     193.701    -470.020
  C      -81.290     194.882    -468.636
  O      -80.316     193.853    -468.697
  O      -79.026     195.209    -470.394
  O      -78.245     192.802    -469.927
  H      -78.150     195.424    -470.037
  H      -81.990     194.655    -467.832
  H      -81.844     194.959    -469.578
  H      -80.798     195.836    -468.419
  H      -77.158     187.425    -474.725
  H      -78.627     187.482    -473.781
  H      -77.179     186.780    -473.101

 3  4  5  6  7  8  9  10  11  12  22  25  29  30  31  32 0
 6-311+G(2d,p)
 ****
 33  36  37 0
 6-311+G(2d,p)
 ****
 1  2  13  14  15  16  17  18  19  20  21  23  24  26 0
 3-21G
 ****
 27  28  34  35  38  39  40  41  42  43  44  45  46  47  48 0
 3-21G
 ****


