%nproc=1
%NoSave
%Mem=1900MB
#P OB98/GEN NMR

erre ene a

0 1
  C      222.079     -46.621     116.356
  O      221.665     -46.167     115.081
  H      223.065     -47.082     116.261
  H      221.374     -47.366     116.735
  H      222.146     -45.781     117.053
  P      220.237     -45.442     115.012
  C      217.846     -46.173     115.747
  O      219.150     -46.571     115.350
  C      216.823     -47.256     115.381
  O      216.723     -47.329     113.928
  C      217.203     -48.662     115.872
  O      215.986     -49.396     116.092
  C      217.927     -49.227     114.660
  O      218.081     -50.623     114.768
  C      217.020     -48.694     113.555
  N      218.724     -51.729     109.810
  C      218.109     -52.004     110.981
  N      217.674     -51.142     111.921
  C      217.908     -49.872     111.549
  C      218.517     -49.438     110.382
  C      218.942     -50.432     109.485
  N      219.577     -50.156     108.297
  N      218.587     -48.055     110.354
  C      218.027     -47.667     111.483
  N      217.611     -48.729     112.238
  O      220.037     -45.173     113.447
  O      220.114     -44.190     115.814
  H      218.407     -51.004     113.923
  H      220.324     -44.268     113.225
  H      217.947     -53.060     111.191
  H      217.909     -46.640     111.806
  H      216.071     -49.240     113.507
  H      218.933     -48.805     114.577
  H      217.796     -48.657     116.790
  H      215.837     -46.955     115.750
  H      217.597     -45.238     115.235
  H      217.829     -46.008     116.829
  H      219.864     -50.929     107.717
  H      219.761     -49.196     108.051
  P      215.051     -49.006     117.339
  C      215.141     -49.256     119.942
  O      215.756     -49.514     118.689
  O      213.842     -50.049     117.186
  O      214.541     -47.603     117.354
  H      213.030     -49.665     117.570
  H      215.745     -49.663     120.726
  H      214.173     -49.711     119.965
  H      215.042     -48.200     120.080

 6  7  8  9  10  11  12  13  14  15  25  28  32  33  34  35 0
 6-311+G(2d,p)
 ****
 36  37  40 0
 6-311+G(2d,p)
 ****
 1  2  3  4  5  16  17  18  19  20  21  22  23  24 0
 3-21G
 ****
 26  27  29  30  31  38  39 41  42  43  44  45  46  47  48 0
 3-21G
 ****


