%nproc=1
%NoSave
%Mem=1900MB
#P OB98/GEN NMR

erre ene a

0 1
  C     -216.104     239.877     315.909
  O     -216.305     240.405     317.225
  P     -215.067     241.157     317.920
  C     -215.352     242.818     319.931
  O     -215.554     241.510     319.406
  C     -216.133     242.982     321.230
  O     -217.558     243.024     320.974
  C     -215.939     241.844     322.225
  O     -214.663     241.922     322.856
  C     -217.129     242.063     323.153
  O     -216.839     243.107     324.103
  C     -218.219     242.538     322.163
  N     -219.193     241.502     321.849
  C     -220.277     241.401     322.717
  O     -220.414     242.120     323.707
  N     -221.200     240.430     322.411
  C     -221.124     239.548     321.372
  O     -221.983     238.709     321.148
  C     -219.931     239.670     320.522
  C     -219.029     240.622     320.792
  O     -215.085     242.561     317.148
  O     -213.789     240.392     317.815
  H     -215.985     242.862     316.930
  H     -216.039     242.823     324.584
  H     -222.001     240.357     323.022
  H     -219.822     238.967     319.701
  H     -218.140     240.721     320.177
  H     -218.765     243.395     322.585
  H     -217.387     241.165     323.720
  H     -216.039     240.879     321.715
  H     -215.837     243.938     321.689
  H     -215.695     243.563     319.207
  H     -214.283     242.977     320.086
  P     -213.583     240.807     322.441
  C     -211.082     241.543     322.664
  O     -212.264     241.111     323.299
  O     -213.206     241.283     320.957
  O     -214.101     239.409     322.525
  H     -213.070     242.246     320.891
  H     -210.438     242.020     323.404
  H     -211.298     242.264     321.869
  H     -210.556     240.680     322.241
  H     -217.004     239.407     315.572
  H     -215.312     239.158     315.930
  H     -215.845     240.672     315.241

 3  4  5  6  7  8  9  10  11  12  13  24  28  29  30  31  32 0
 6-311+G(2d,p)
 ****
 33  34 0
 6-311+G(2d,p)
 ****
 1  2  14  15  16  17  18  19  20  21  22  23  25  26  27 0
 3-21G
 ****
 35  36  37  38  39  40  41  42  43  44  45 0
 3-21G
 ****


