%nproc=1
%NoSave
%Mem=1900MB
#P OB98/GEN NMR

erre ene a

0 1
  C      655.511     -11.057     -60.726
  O      655.308      -9.711     -61.099
  H      654.534     -11.523     -60.569
  H      656.075     -11.110     -59.791
  H      656.037     -11.604     -61.513
  P      656.595      -8.794     -61.388
  C      655.236      -7.315     -63.024
  O      655.978      -7.369     -61.817
  C      654.700      -5.905     -63.250
  O      655.762      -4.925     -63.184
  C      654.058      -5.673     -64.616
  O      652.782      -6.276     -64.755
  C      653.982      -4.157     -64.615
  O      652.907      -3.728     -63.767
  C      655.360      -3.797     -64.010
  N      656.374      -3.531     -65.030
  C      656.292      -2.299     -65.690
  O      655.403      -1.491     -65.408
  N      657.210      -2.004     -66.669
  C      658.112      -2.886     -66.991
  N      658.992      -2.551     -67.982
  C      658.221      -4.207     -66.344
  C      657.328      -4.456     -65.387
  O      657.609      -9.366     -62.329
  O      657.182      -8.467     -59.938
  H      652.091      -4.140     -64.115
  H      657.992      -7.907     -60.058
  H      658.965      -4.915     -66.664
  H      657.342      -5.409     -64.864
  H      655.281      -2.919     -63.353
  H      653.802      -3.733     -65.611
  H      654.733      -5.990     -65.423
  H      654.003      -5.684     -62.435
  H      658.888      -1.640     -68.405
  H      654.418      -8.039     -62.960
  H      659.674      -3.197     -68.338
  H      655.880      -7.583     -63.873
  P      652.402      -6.846     -66.211
  C      651.679      -9.036     -64.996
  O      651.381      -8.054     -65.972
  O      653.749      -7.562     -66.683
  O      651.925      -5.820     -67.193
  H      654.262      -6.977     -67.284
  H      650.894      -9.763     -64.970
  H      651.766      -8.570     -64.036
  H      652.602      -9.517     -65.244

 6  7  8  9  10  11  12  13  14  15  16  26  30  31  32  33  35 0
 6-311+G(2d,p)
 ****
 37  38 0
 6-311+G(2d,p)
 ****
 1  2  3  4  5  17  18  19  20  21  22  23  24  25 0
 3-21G
 ****
 27  28  29  34  36  39  40  41  42  43  44  45  46 0
 3-21G
 ****


