%nproc=1
%NoSave
%Mem=1900MB
#P OB98/GEN NMR

erre ene a

0 1
  C      406.896    -221.829    -286.424
  O      405.888    -220.925    -286.013
  H      407.065    -222.551    -285.624
  H      407.828    -221.293    -286.620
  H      406.575    -222.363    -287.323
  P      405.513    -219.751    -287.040
  C      407.376    -218.100    -286.333
  O      405.988    -218.408    -286.305
  C      407.632    -216.719    -285.735
  O      406.962    -215.710    -286.513
  C      407.135    -216.555    -284.303
  O      408.086    -217.064    -283.383
  C      407.025    -215.041    -284.207
  O      408.324    -214.474    -283.947
  C      406.551    -214.644    -285.617
  N      402.607    -211.488    -284.685
  C      403.885    -211.480    -284.248
  N      404.866    -212.375    -284.491
  C      404.420    -213.369    -285.285
  C      403.142    -213.513    -285.801
  C      402.208    -212.512    -285.476
  N      400.905    -212.527    -285.922
  N      403.049    -214.660    -286.568
  C      404.267    -215.157    -286.560
  N      405.122    -214.434    -285.768
  O      404.112    -219.762    -287.548
  O      406.645    -219.952    -288.158
  H      408.180    -213.543    -283.706
  H      407.501    -220.156    -287.744
  H      404.160    -210.637    -283.622
  H      404.584    -216.028    -287.125
  H      407.038    -213.719    -285.962
  H      406.367    -214.717    -283.394
  H      406.139    -216.996    -284.161
  H      408.710    -216.520    -285.795
  H      407.749    -218.129    -287.365
  H      400.261    -211.886    -285.490
  H      400.579    -213.354    -286.403
  H      407.898    -218.867    -285.754
  P      407.827    -218.436    -282.595
  C      405.926    -217.375    -281.221
  O      407.210    -217.990    -281.183
  O      409.004    -219.346    -282.536
  O      406.573    -219.089    -283.346
  H      406.503    -220.038    -283.114
  H      405.621    -217.124    -280.227
  H      405.218    -218.053    -281.650
  H      405.974    -216.486    -281.815

 6  7  8  9  10  11  12  13  14  15  25  28  32  33  34  35 0
 6-311+G(2d,p)
 ****
 36  39  40 0
 6-311+G(2d,p)
 ****
 1  2  3  4  5  16  17  18  19  20  21  22  23  24 0
 3-21G
 ****
 26  27  29  30  31  37  38  41  42  43  44  45  46  47 0
 3-21G
 ****
 48 0
 3-21G
 ****


