%nproc=1
%NoSave
%Mem=1900MB
#P OB98/GEN NMR

erre ene a

0 1
  C     -959.758     997.705     -94.367
  O     -958.936     997.120     -95.357
  H     -960.397     998.452     -94.840
  H     -959.147     998.193     -93.604
  H     -960.389     996.940     -93.911
  P     -957.888     996.010     -94.863
  C     -955.806     997.482     -94.389
  O     -956.924     996.803     -93.842
  C     -954.712     997.664     -93.332
  O     -955.114     998.667     -92.375
  C     -954.406     996.414     -92.524
  O     -953.498     995.578     -93.234
  C     -953.763     997.015     -91.286
  O     -952.387     997.325     -91.561
  C     -954.564     998.309     -91.088
  N     -955.997     996.638     -86.450
  C     -954.881     996.400     -87.181
  N     -954.603     996.823     -88.423
  C     -955.587     997.605     -88.914
  C     -956.778     997.929     -88.278
  C     -956.967     997.421     -86.983
  N     -958.094     997.667     -86.232
  N     -957.558     998.733     -89.085
  C     -956.827     998.934     -90.155
  N     -955.648     998.241     -90.125
  O     -957.214     995.229     -95.936
  O     -958.806     995.152     -93.866
  H     -952.342     997.628     -92.489
  H     -959.382     995.735     -93.346
  H     -954.133     995.773     -86.712
  H     -957.103     999.583     -90.980
  H     -953.917     999.143     -90.771
  H     -953.771     996.334     -90.433
  H     -955.315     995.871     -92.233
  H     -953.818     998.033     -93.842
  H     -956.113     998.463     -94.784
  H     -958.222     997.108     -85.401
  H     -958.867     998.132     -86.679
  H     -955.425     996.883     -95.222
  P     -953.937     994.121     -93.744
  C     -952.803     993.064     -91.699
  O     -954.019     993.226     -92.417
  O     -953.088     993.576     -94.851
  O     -955.469     994.300     -94.152
  H     -955.754     993.543     -94.735
  H     -952.976     992.453     -90.838
  H     -952.441     994.022     -91.389
  H     -952.076     992.595     -92.329

 6  7  8  9  10  11  12  13  14  15  25  28  32  33  34  35 0
 6-311+G(2d,p)
 ****
 36  39  40 0
 6-311+G(2d,p)
 ****
 1  2  3  4  5  16  17  18  19  20  21  22  23  24 0
 3-21G
 ****
 26  27  29  30  31  37  38  41  42  43  44  45  46  47 0
 3-21G
 ****
 48 0
 3-21G
 ****


