%nproc=1
%NoSave
%Mem=1900MB
#P OB98/GEN NMR

erre ene a

0 1
  C      119.960      65.210    -111.113
  O      121.160      65.063    -110.381
  H      119.955      64.532    -111.970
  H      119.117      64.960    -110.463
  H      119.848      66.243    -111.454
  P      122.526      65.394    -111.154
  C      123.284      62.910    -111.056
  O      122.961      64.027    -111.875
  C      124.245      61.991    -111.802
  O      123.637      61.519    -113.024
  C      125.552      62.657    -112.221
  O      126.488      62.716    -111.160
  C      126.012      61.703    -113.310
  O      126.570      60.517    -112.714
  C      124.691      61.374    -114.016
  N      125.707      62.310    -118.943
  C      126.174      61.376    -118.088
  N      125.857      61.196    -116.790
  C      124.957      62.110    -116.390
  C      124.398      63.125    -117.145
  C      124.802      63.207    -118.489
  N      124.339      64.168    -119.361
  N      123.537      63.887    -116.378
  C      123.554      63.317    -115.191
  N      124.405      62.244    -115.144
  O      123.600      65.541    -109.976
  O      122.492      66.588    -112.049
  H      127.464      60.754    -112.405
  H      124.372      66.048    -110.289
  H      126.901      60.682    -118.501
  H      122.972      63.640    -114.338
  H      124.657      60.342    -114.385
  H      126.782      62.131    -113.955
  H      125.376      63.647    -112.661
  H      124.439      61.116    -111.166
  H      122.368      62.360    -110.821
  H      124.828      64.252    -120.239
  H      123.784      64.925    -118.989
  H      123.738      63.265    -110.127
  P      127.655      63.815    -111.267
  C      129.524      62.043    -110.900
  O      128.956      63.023    -111.764
  O      127.980      64.148    -109.737
  O      127.293      65.034    -112.052
  H      128.345      65.049    -109.650
  H      130.380      61.606    -111.370
  H      128.800      61.281    -110.699
  H      129.819      62.505    -109.981

 6  7  8  9  10  11  12  13  14  15  25  28  32  33  34  35 0
 6-311+G(2d,p)
 ****
 36  39  40 0
 6-311+G(2d,p)
 ****
 1  2  3  4  5  16  17  18  19  20  21  22  23  24 0
 3-21G
 ****
 26  27  29  30  31  37  38  41  42  43  44  45  46  47 0
 3-21G
 ****
 48 0
 3-21G
 ****


