%nproc=1
%NoSave
%Mem=1900MB
#P OB98/GEN NMR

erre ene a

0 1
  C      859.733    -305.457      67.866
  O      858.576    -306.042      67.308
  H      859.442    -304.557      68.410
  H      860.426    -305.172      67.066
  H      860.234    -306.141      68.558
  P      858.672    -307.525      66.703
  C      856.971    -306.937      64.856
  O      857.283    -307.796      65.947
  C      855.449    -306.798      64.687
  O      854.931    -305.970      65.771
  C      855.024    -306.150      63.362
  O      853.748    -306.703      63.002
  C      854.870    -304.697      63.770
  O      854.108    -303.969      62.825
  C      854.254    -304.857      65.162
  N      854.372    -303.635      65.969
  C      853.380    -302.669      65.783
  O      852.458    -302.790      64.973
  N      853.501    -301.537      66.540
  C      854.530    -301.249      67.392
  O      854.609    -300.199      68.021
  C      855.573    -302.284      67.511
  C      855.443    -303.420      66.809
  O      859.077    -308.591      67.662
  O      859.707    -307.389      65.487
  H      853.841    -303.101      63.200
  H      860.195    -308.230      65.362
  H      852.786    -300.833      66.429
  H      856.411    -302.083      68.164
  H      856.194    -304.192      66.873
  H      853.179    -305.106      65.091
  H      855.849    -304.202      63.843
  H      855.745    -306.291      62.553
  H      854.990    -307.792      64.801
  H      857.403    -307.375      63.946
  H      857.408    -305.950      65.021
  P      853.614    -307.935      61.982
  C      852.284    -306.601      60.212
  O      852.294    -307.733      61.087
  O      853.714    -309.284      62.628
  O      854.804    -307.725      60.929
  H      855.088    -308.594      60.570
  H      851.360    -306.575      59.674
  H      853.097    -306.677      59.521
  H      852.388    -305.705      60.787

 6  7  8  9  10  11  12  13  14  15  16  26  31  32  33  34  35 0
 6-311+G(2d,p)
 ****
 36  37 0
 6-311+G(2d,p)
 ****
 1  2  3  4  5  17  18  19  20  21  22  23  24  25 0
 3-21G
 ****
 27  28  29  30  38  39  40  41  42  43  44  45 0
 3-21G
 ****


