%nproc=1
%NoSave
%Mem=1900MB
#P OB98/GEN NMR

erre ene a

0 1
  C      -57.213     556.196    -218.757
  O      -55.816     556.040    -218.539
  P      -54.859     557.288    -218.852
  C      -55.063     557.072    -221.429
  O      -55.300     557.879    -220.280
  C      -54.840     557.935    -222.668
  O      -54.565     557.067    -223.807
  C      -56.025     558.822    -223.050
  O      -55.495     560.027    -223.630
  C      -56.721     558.021    -224.136
  O      -57.554     558.833    -224.958
  C      -55.512     557.413    -224.846
  N      -57.792     555.704    -229.093
  C      -57.582     556.955    -228.623
  N      -56.963     557.329    -227.483
  C      -56.549     556.253    -226.794
  C      -56.718     554.920    -227.128
  C      -57.378     554.653    -228.345
  N      -57.584     553.384    -228.825
  N      -56.181     554.103    -226.157
  C      -55.685     554.928    -225.254
  N      -55.863     556.236    -225.608
  O      -53.454     556.586    -219.156
  O      -54.738     558.290    -217.755
  H      -58.011     558.258    -225.602
  H      -52.818     556.792    -218.438
  H      -57.950     557.764    -229.255
  H      -55.197     554.627    -224.332
  H      -55.025     558.121    -225.520
  H      -57.348     557.246    -223.677
  H      -56.689     559.069    -222.218
  H      -53.942     558.544    -222.510
  H      -55.941     556.440    -221.598
  H      -57.938     553.281    -229.767
  H      -57.113     552.607    -228.373
  H      -54.195     556.424    -221.251
  P      -56.123     561.414    -223.137
  C      -57.435     561.852    -225.326
  O      -57.498     561.609    -223.932
  O      -55.148     562.512    -223.779
  O      -56.201     561.553    -221.649
  H      -55.148     563.315    -223.228
  H      -58.311     561.395    -225.802
  H      -56.529     561.438    -225.778
  H      -57.462     562.933    -225.502
  H      -57.717     555.286    -218.506
  H      -57.390     556.429    -219.786
  H      -57.583     556.990    -218.143

 3  4  5  6  7  8  9  10  11  12  22  25  29  30  31  32 0
 6-311+G(2d,p)
 ****
 33  36  37 0
 6-311+G(2d,p)
 ****
 1  2  13  14  15  16  17  18  19  20  21  23  24  26 0
 3-21G
 ****
 27  28  34  35  38  39  40  41  42  43  44  45  46  47  48 0
 3-21G
 ****


