%nproc=1
%NoSave
%Mem=1900MB
#P OB98/GEN NMR

erre ene a

0 1
  C       52.721    -192.875    -260.631
  O       53.022    -192.064    -261.751
  H       53.247    -192.478    -259.759
  H       53.054    -193.900    -260.811
  H       51.645    -192.862    -260.433
  P       52.309    -192.460    -263.133
  C       50.182    -190.999    -262.747
  O       51.360    -191.220    -263.510
  C       49.814    -189.509    -262.764
  O       50.973    -188.738    -262.319
  C       49.435    -188.986    -264.160
  O       48.488    -187.911    -263.999
  C       50.759    -188.416    -264.648
  O       50.554    -187.553    -265.741
  C       51.256    -187.776    -263.355
  N       54.843    -185.047    -265.746
  C       53.498    -185.091    -265.888
  N       52.610    -185.841    -265.204
  C       53.236    -186.583    -264.272
  C       54.594    -186.647    -264.015
  C       55.422    -185.836    -264.806
  N       56.794    -185.803    -264.687
  N       54.855    -187.552    -262.998
  C       53.672    -188.018    -262.647
  N       52.666    -187.462    -263.389
  O       51.279    -193.605    -262.698
  O       53.222    -192.908    -264.225
  H       50.139    -186.715    -265.455
  H       51.698    -194.484    -262.802
  H       53.079    -184.439    -266.651
  H       53.484    -188.758    -261.879
  H       50.715    -186.849    -263.113
  H       51.430    -189.212    -264.978
  H       49.012    -189.752    -264.812
  H       49.012    -189.326    -262.035
  H       50.365    -191.325    -261.719
  H       49.360    -191.578    -263.171
  H       57.312    -185.215    -265.315
  H       57.240    -186.409    -264.016
  P       46.923    -188.258    -263.886
  C       46.662    -188.270    -261.290
  O       46.314    -187.663    -262.526
  O       46.954    -189.835    -263.584
  O       46.113    -187.986    -265.115
  H       46.301    -190.289    -264.147
  H       46.174    -187.755    -260.490
  H       47.722    -188.219    -261.153
  H       46.352    -189.294    -261.296

 6  7  8  9  10  11  12  13  14  15  25  28  32  33  34  35 0
 6-311+G(2d,p)
 ****
 36  37  40 0
 6-311+G(2d,p)
 ****
 1  2  3  4  5  16  17  18  19  20  21  22  23  24 0
 3-21G
 ****
 26  27  29  30  31  38  39 41  42  43  44  45  46  47  48 0
 3-21G
 ****


