%nproc=1
%NoSave
%Mem=1900MB
#P OB98/GEN NMR

erre ene a

0 1
  C     -700.997    -207.628     264.579
  O     -702.219    -207.216     265.156
  P     -702.245    -206.174     266.370
  C     -702.256    -207.906     268.345
  O     -701.592    -206.883     267.650
  C     -701.316    -208.473     269.418
  O     -700.190    -209.115     268.809
  C     -700.792    -207.371     270.340
  O     -701.600    -207.268     271.508
  C     -699.370    -207.822     270.620
  O     -699.356    -208.818     271.668
  C     -698.974    -208.460     269.267
  N     -698.496    -207.573     268.195
  C     -697.510    -208.022     267.320
  O     -697.013    -209.145     267.360
  N     -697.072    -207.100     266.397
  C     -697.567    -205.835     266.236
  O     -697.010    -204.959     265.575
  C     -698.778    -205.526     266.997
  C     -699.166    -206.383     267.945
  O     -703.793    -206.090     266.751
  O     -701.657    -204.835     266.076
  H     -699.702    -208.391     272.470
  H     -704.197    -205.297     266.351
  H     -696.263    -207.376     265.849
  H     -699.278    -204.587     266.807
  H     -700.040    -206.150     268.549
  H     -698.214    -209.239     269.413
  H     -698.755    -206.997     270.980
  H     -700.755    -206.412     269.804
  H     -701.865    -209.227     270.012
  H     -702.565    -208.701     267.657
  H     -703.168    -207.518     268.808
  P     -701.884    -205.825     272.138
  C     -699.980    -206.088     273.831
  O     -700.477    -205.337     272.744
  O     -703.049    -205.744     273.073
  O     -702.100    -204.890     270.844
  H     -703.056    -204.782     270.668
  H     -698.959    -205.770     274.037
  H     -699.993    -207.149     273.606
  H     -700.591    -205.886     274.724
  H     -701.192    -208.322     263.788
  H     -700.391    -208.099     265.325
  H     -700.482    -206.776     264.187

 3  4  5  6  7  8  9  10  11  12  13  23  28  29  30  31  32 0
 6-311+G(2d,p)
 ****
 33  34 0
 6-311+G(2d,p)
 ****
 1  2  14  15  16  17  18  19  20  21  22  24  25  26  27 0
 3-21G
 ****
 35  36  37  38  39  40  41  42  43  44  45 0
 3-21G
 ****


