%nproc=1
%NoSave
%Mem=1900MB
#P OB98/GEN NMR

erre ene a

0 1
  C     -178.458     -69.595      40.710
  O     -177.520     -70.572      41.127
  P     -177.145     -71.756      40.112
  C     -178.579     -73.498      38.768
  O     -178.509     -72.549      39.815
  C     -180.042     -73.776      38.400
  O     -180.619     -72.571      37.821
  C     -180.238     -74.912      37.385
  O     -181.456     -75.585      37.730
  C     -180.395     -74.163      36.072
  O     -181.064     -74.931      35.081
  C     -181.171     -72.926      36.539
  N     -181.076     -71.795      35.612
  C     -182.216     -71.451      34.891
  O     -183.286     -72.052      34.971
  N     -182.077     -70.389      34.036
  C     -180.925     -69.700      33.784
  O     -180.853     -68.768      32.993
  C     -179.744     -70.140      34.539
  C     -179.874     -71.144      35.410
  O     -176.325     -72.738      41.073
  O     -176.409     -71.296      38.900
  H     -176.669     -72.755      41.982
  H     -181.170     -74.375      34.287
  H     -182.901     -70.097      33.527
  H     -178.806     -69.627      34.360
  H     -179.017     -71.488      35.977
  H     -182.225     -73.182      36.698
  H     -179.406     -73.896      35.684
  H     -179.409     -75.622      37.385
  H     -180.594     -73.991      39.325
  H     -178.113     -74.433      39.090
  H     -178.028     -73.125      37.901
  P     -181.366     -77.123      38.195
  C     -180.865     -79.388      36.981
  O     -180.889     -77.978      36.929
  O     -182.931     -77.478      38.294
  O     -180.638     -77.354      39.476
  H     -183.430     -77.201      37.513
  H     -180.846     -79.780      35.958
  H     -181.749     -79.788      37.486
  H     -179.963     -79.720      37.502
  H     -178.600     -68.880      41.493
  H     -179.391     -70.069      40.487
  H     -178.092     -69.099      39.836

 3  4  5  6  7  8  9  10  11  12  13  24  28  29  30  31  32 0
 6-311+G(2d,p)
 ****
 33  34 0
 6-311+G(2d,p)
 ****
 1  2  14  15  16  17  18  19  20  21  22  23  25  26  27 0
 3-21G
 ****
 35  36  37  38  39  40  41  42  43  44  45 0
 3-21G
 ****


