%nproc=1
%NoSave
%Mem=1900MB
#P OB98/GEN NMR

erre ene a

0 1
  C      -80.345    1276.447    -562.570
  O      -80.489    1275.272    -563.353
  P      -79.746    1273.954    -562.774
  C      -81.853    1272.471    -562.596
  O      -80.808    1273.129    -561.907
  C      -82.726    1271.645    -561.657
  O      -81.968    1270.538    -561.084
  C      -83.310    1272.423    -560.474
  O      -84.605    1271.909    -560.190
  C      -82.363    1272.101    -559.355
  O      -82.948    1272.376    -558.081
  C      -82.118    1270.620    -559.644
  N      -80.427    1268.688    -555.276
  C      -81.638    1269.253    -555.598
  N      -82.567    1269.261    -554.587
  N      -81.920    1269.766    -556.753
  C      -80.918    1269.653    -557.658
  C      -79.668    1269.094    -557.487
  C      -79.374    1268.553    -556.176
  O      -78.286    1268.060    -555.844
  N      -78.929    1269.142    -558.639
  C      -79.731    1269.776    -559.489
  N      -80.965    1270.072    -558.970
  O      -78.743    1274.567    -561.675
  O      -79.003    1273.165    -563.817
  H      -82.445    1271.893    -557.401
  H      -77.842    1274.618    -562.035
  H      -80.239    1268.317    -554.347
  H      -79.460    1270.053    -560.498
  H      -82.965    1269.997    -559.349
  H      -81.435    1272.659    -559.416
  H      -82.421    1268.852    -553.685
  H      -83.378    1273.522    -560.652
  H      -83.493    1269.637    -554.808
  H      -83.557    1271.212    -562.252
  H      -81.417    1271.806    -563.365
  H      -82.441    1273.216    -563.163
  P      -85.868    1272.546    -560.934
  C      -86.559    1270.463    -562.322
  O      -86.037    1271.772    -562.325
  O      -85.313    1274.000    -561.360
  O      -87.088    1272.644    -560.095
  H      -86.045    1274.659    -561.243
  H      -87.009    1270.271    -563.284
  H      -87.271    1270.321    -561.521
  H      -85.716    1269.758    -562.196
  H      -80.870    1277.254    -563.037
  H      -79.308    1276.696    -562.488
  H      -80.749    1276.277    -561.594

 3  4  5  6  7  8  9  10  11  12  23  26  30  31 0
 6-311+G(2d,p)
 ****
 33  35  36  37  38 0
 6-311+G(2d,p)
 ****
 1  2  13  14  15  16  17  18  19  20  21  22  24  25 0
 3-21G
 ****
 27  28  29  32  34  39  40  41  42  43  44  45  46  47  48  49 0
 3-21G
 ****


