%nproc=1
%NoSave
%Mem=1900MB
#P OB98/GEN NMR

erre ene a

0 1
  C      366.501    -690.128     530.794
  O      366.810    -691.364     531.391
  P      365.622    -692.349     531.856
  C      367.421    -693.972     532.763
  O      366.191    -693.286     533.031
  C      368.026    -694.515     534.052
  O      368.469    -693.422     534.900
  C      367.053    -695.316     534.896
  O      366.790    -696.587     534.351
  C      367.795    -695.330     536.236
  O      368.818    -696.348     536.246
  C      368.427    -693.925     536.261
  N      367.717    -693.011     537.148
  C      368.102    -693.028     538.489
  O      368.949    -693.846     538.887
  N      367.533    -692.129     539.355
  C      366.568    -691.355     538.927
  N      366.061    -690.445     539.804
  C      366.017    -691.428     537.561
  C      366.643    -692.250     536.714
  O      364.920    -693.079     530.756
  O      364.607    -691.382     532.643
  H      363.708    -691.538     532.290
  H      369.378    -696.164     537.045
  H      365.167    -690.824     537.286
  H      366.341    -692.357     535.700
  H      369.485    -693.988     536.589
  H      367.126    -695.536     537.082
  H      366.116    -694.757     535.018
  H      368.898    -695.126     533.786
  H      366.466    -690.416     540.745
  H      368.102    -693.266     532.295
  H      365.574    -689.607     539.509
  H      367.227    -694.782     532.048
  P      365.253    -697.050     534.329
  C      365.963    -699.481     533.774
  O      365.224    -698.623     534.626
  O      364.866    -696.956     532.773
  O      364.339    -696.217     535.168
  H      363.933    -696.635     532.680
  H      366.137    -700.426     534.294
  H      366.940    -699.046     533.545
  H      365.423    -699.675     532.859
  H      367.407    -689.612     530.553
  H      365.925    -689.537     531.475
  H      365.936    -690.295     529.900

 3  4  5  6  7  8  9  10  11  12  13  24  27  28  29  30  32 0
 6-311+G(2d,p)
 ****
 34  35 0
 6-311+G(2d,p)
 ****
 1  2  14  15  16  17  18  19  20  21  22  23  25  26 0
 3-21G
 ****
 31  33  36  37  38  39  40  41  42  43  44  45  46 0
 3-21G
 ****


