%nproc=1
%NoSave
%Mem=1900MB
#P OB98/GEN NMR

erre ene a

0 1
  C     -216.834     -69.789     110.852
  O     -217.645     -68.760     111.383
  H     -216.818     -69.696     109.763
  H     -217.240     -70.768     111.118
  H     -215.813     -69.695     111.232
  P     -217.889     -68.790     112.971
  C     -220.294     -69.716     113.373
  O     -218.919     -70.007     113.170
  C     -220.980     -69.472     112.033
  O     -220.787     -70.601     111.149
  C     -222.491     -69.283     112.119
  O     -222.872     -67.994     112.569
  C     -222.866     -69.507     110.665
  O     -222.502     -68.351     109.889
  C     -221.974     -70.718     110.317
  N     -222.637     -72.004     110.545
  C     -223.509     -72.448     109.544
  O     -223.696     -71.777     108.531
  N     -224.180     -73.633     109.730
  C     -223.984     -74.326     110.808
  N     -224.679     -75.488     110.936
  C     -223.068     -73.903     111.882
  C     -222.436     -72.748     111.688
  O     -218.810     -67.506     113.228
  O     -216.666     -68.855     113.822
  H     -222.694     -68.570     108.959
  H     -219.143     -67.511     114.159
  H     -222.948     -74.508     112.769
  H     -221.744     -72.373     112.434
  H     -221.645     -70.676     109.271
  H     -223.933     -69.670     110.513
  H     -222.960     -70.063     112.729
  H     -220.497     -68.605     111.564
  H     -225.345     -75.721     110.211
  H     -220.366     -68.822     114.001
  H     -224.710     -76.018     111.798
  H     -220.784     -70.551     113.883
  P     -224.352     -67.833     113.173
  C     -226.008     -66.525     111.650
  O     -225.356     -67.757     111.927
  O     -224.352     -66.339     113.740
  O     -224.713     -68.834     114.226
  H     -224.903     -66.272     114.545
  H     -226.639     -66.640     110.794
  H     -225.276     -65.770     111.454
  H     -226.600     -66.237     112.493

 6  7  8  9  10  11  12  13  14  15  16  26  30  31  32  33  35 0
 6-311+G(2d,p)
 ****
 37  38 0
 6-311+G(2d,p)
 ****
 1  2  3  4  5  17  18  19  20  21  22  23  24  25 0
 3-21G
 ****
 27  28  29  34  36  39  40  41  42  43  44  45  46 0
 3-21G
 ****


