%nproc=1
%NoSave
%Mem=1900MB
#P OB98/GEN NMR

erre ene a

0 1
  C     -610.484     -43.893    -141.687
  O     -611.087     -42.631    -141.466
  H     -610.871     -44.313    -142.619
  H     -610.727     -44.574    -140.865
  H     -609.397     -43.782    -141.768
  P     -610.729     -41.898    -140.080
  C     -613.205     -41.965    -139.250
  O     -611.869     -42.423    -139.072
  C     -614.162     -42.825    -138.429
  O     -614.246     -44.159    -138.975
  C     -613.756     -43.011    -136.972
  O     -614.040     -41.882    -136.156
  C     -614.625     -44.204    -136.604
  O     -615.988     -43.773    -136.437
  C     -614.450     -45.078    -137.869
  N     -613.340     -46.033    -137.766
  C     -613.384     -46.941    -136.707
  O     -614.319     -46.929    -135.895
  N     -612.349     -47.829    -136.548
  C     -611.372     -47.832    -137.396
  N     -610.359     -48.731    -137.186
  C     -611.284     -46.895    -138.540
  C     -612.291     -46.036    -138.663
  O     -611.169     -40.380    -140.337
  O     -609.331     -42.067    -139.590
  H     -616.542     -44.566    -136.527
  H     -611.127     -39.866    -139.493
  H     -610.438     -46.923    -139.212
  H     -612.301     -45.321    -139.479
  H     -615.377     -45.636    -138.081
  H     -614.325     -44.678    -135.673
  H     -612.701     -43.300    -136.882
  H     -615.162     -42.377    -138.511
  H     -610.414     -49.317    -136.369
  H     -613.455     -42.035    -140.317
  H     -609.490     -48.709    -137.703
  H     -613.288     -40.921    -138.932
  P     -613.629     -41.971    -134.610
  C     -616.103     -41.628    -133.851
  O     -614.937     -42.444    -133.803
  O     -613.465     -40.437    -134.184
  O     -612.385     -42.761    -134.330
  H     -612.759     -40.329    -133.512
  H     -616.878     -42.079    -133.267
  H     -616.430     -41.533    -134.865
  H     -615.877     -40.659    -133.457

 6  7  8  9  10  11  12  13  14  15  16  26  30  31  32  33  35 0
 6-311+G(2d,p)
 ****
 37  38 0
 6-311+G(2d,p)
 ****
 1  2  3  4  5  17  18  19  20  21  22  23  24  25 0
 3-21G
 ****
 27  28  29  34  36  39  40  41  42  43  44  45  46 0
 3-21G
 ****


