%nproc=1
%NoSave
%Mem=1900MB
#P OB98/GEN NMR

erre ene a

0 1
  C        4.709      71.166    -448.304
  O        3.711      71.170    -447.281
  P        4.096      71.938    -445.925
  C        4.528      69.713    -444.661
  O        5.056      70.970    -445.070
  C        5.141      69.270    -443.328
  O        6.554      68.945    -443.491
  C        5.046      70.336    -442.221
  O        4.854      69.632    -440.986
  C        6.432      70.969    -442.276
  O        6.746      71.731    -441.118
  C        7.276      69.715    -442.507
  N       12.147      70.191    -441.045
  C       11.020      69.904    -440.352
  N        9.752      69.797    -440.815
  C        9.724      70.015    -442.141
  C       10.786      70.318    -442.979
  C       12.051      70.401    -442.378
  N       13.203      70.710    -443.072
  N       10.341      70.491    -444.288
  C        9.026      70.376    -444.210
  N        8.620      70.004    -442.956
  O        2.728      71.952    -445.097
  O        4.644      73.312    -446.150
  H        7.601      72.190    -441.245
  H        2.279      72.814    -445.191
  H       11.149      69.743    -439.282
  H        8.334      70.541    -445.023
  H        7.361      69.105    -441.601
  H        6.493      71.643    -443.134
  H        4.229      71.047    -442.365
  H        4.631      68.353    -443.002
  H        4.737      68.955    -445.417
  H       14.065      70.750    -442.549
  H       13.172      70.889    -444.063
  H        3.434      69.789    -444.593
  P        3.387      69.624    -440.329
  C        3.759      71.768    -438.963
  O        3.064      71.173    -440.039
  O        3.737      69.096    -438.851
  O        2.348      68.813    -441.038
  H        4.471      69.606    -438.461
  H        3.504      72.827    -438.926
  H        4.837      71.659    -439.100
  H        3.455      71.297    -438.013
  H        4.345      70.629    -449.155
  H        5.595      70.693    -447.936
  H        4.934      72.173    -448.587

 3  4  5  6  7  8  9  10  11  12  22  25  29  30  31  32 0
 6-311+G(2d,p)
 ****
 33  36  37 0
 6-311+G(2d,p)
 ****
 1  2  13  14  15  16  17  18  19  20  21  23  24  26 0
 3-21G
 ****
 27  28  34  35  38  39  40  41  42  43  44  45  46  47  48 0
 3-21G
 ****


