%nproc=1
%NoSave
%Mem=1900MB
#P OB98/GEN NMR

erre ene a

0 1
  C      290.528    -651.964    -405.419
  O      289.536    -652.894    -405.818
  H      291.488    -652.481    -405.374
  H      290.301    -651.562    -404.431
  H      290.599    -651.150    -406.145
  P      288.025    -652.379    -405.954
  C      286.253    -652.911    -407.757
  O      287.616    -652.604    -407.489
  C      285.969    -652.748    -409.247
  O      286.042    -651.358    -409.623
  C      286.951    -653.488    -410.154
  O      286.602    -654.861    -410.246
  C      286.751    -652.731    -411.453
  O      285.523    -653.152    -412.079
  C      286.622    -651.282    -410.954
  N      290.214    -648.816    -413.553
  C      289.084    -649.483    -414.004
  N      288.928    -649.541    -415.344
  N      288.224    -650.062    -413.214
  C      288.552    -649.990    -411.904
  C      289.651    -649.369    -411.340
  C      290.573    -648.687    -412.212
  O      291.572    -648.065    -411.850
  N      289.685    -649.560    -409.981
  C      288.598    -650.260    -409.726
  N      287.884    -650.556    -410.861
  O      287.749    -650.989    -405.456
  O      287.164    -653.478    -405.175
  H      285.543    -652.801    -412.987
  H      287.031    -653.224    -404.240
  H      290.859    -648.404    -414.207
  H      288.277    -650.571    -408.730
  H      285.951    -650.681    -411.577
  H      287.557    -652.894    -412.172
  H      289.693    -649.367    -415.984
  H      287.986    -653.353    -409.829
  H      288.138    -650.060    -415.694
  H      284.938    -653.077    -409.431
  H      285.636    -652.223    -407.174
  H      286.029    -653.934    -407.453
  P      287.664    -655.956    -410.745
  C      288.121    -658.426    -410.146
  O      287.373    -657.258    -409.848
  O      289.085    -655.497    -410.740
  O      287.133    -656.407    -412.179
  H      287.475    -655.849    -412.926
  H      287.833    -659.213    -409.481
  H      289.164    -658.222    -410.026
  H      287.930    -658.724    -411.156

 6  7  8  9  10  11  12  13  14  15  26  29  33  34 0
 6-311+G(2d,p)
 ****
 36  38  39  40  41 0
 6-311+G(2d,p)
 ****
 1  2  3  4  5  16  17  18  19  20  21  22  23  24  25 0
 3-21G
 ****
 27  28  30  31  32  35  37  42  43  44  45  46  47 0
 3-21G
 ****
 48  49 0
 3-21G
 ****


