%nproc=1
%NoSave
%Mem=1900MB
#P OB98/GEN NMR

erre ene a

0 1
  C        9.026     -63.546     -55.896
  O        9.435     -64.383     -56.962
  P        8.323     -64.925     -57.979
  C        6.966     -63.780     -59.878
  O        7.572     -63.652     -58.602
  C        5.610     -63.071     -59.898
  O        4.694     -63.755     -58.991
  C        5.669     -61.599     -59.463
  O        4.677     -60.886     -60.215
  C        5.248     -61.671     -58.007
  O        4.796     -60.428     -57.493
  C        4.171     -62.758     -58.091
  N        3.837     -63.329     -56.788
  C        2.668     -62.887     -56.178
  O        1.910     -62.051     -56.667
  N        2.417     -63.397     -54.932
  C        3.242     -64.213     -54.216
  O        3.014     -64.540     -53.057
  C        4.464     -64.648     -54.911
  C        4.701     -64.195     -56.144
  O        7.228     -65.576     -57.011
  O        8.825     -65.901     -58.990
  H        4.531     -60.573     -56.567
  H        7.331     -66.545     -56.983
  H        1.568     -63.096     -54.479
  H        5.132     -65.313     -54.380
  H        5.604     -64.483     -56.673
  H        3.262     -62.353     -58.555
  H        6.099     -61.998     -57.398
  H        6.653     -61.141     -59.598
  H        5.188     -63.153     -60.907
  H        6.819     -64.838     -60.100
  H        7.630     -63.366     -60.644
  P        4.952     -59.338     -60.544
  C        6.631     -58.227     -62.210
  O        6.361     -59.272     -61.301
  O        5.274     -58.775     -59.078
  O        3.804     -58.652     -61.209
  H        5.854     -59.366     -58.570
  H        6.158     -57.291     -61.900
  H        6.264     -58.505     -63.200
  H        7.712     -58.075     -62.263
  H        9.879     -63.271     -55.311
  H        8.325     -64.070     -55.280
  H        8.565     -62.665     -56.291

 3  4  5  6  7  8  9  10  11  12  13  23  28  29  30  31  32 0
 6-311+G(2d,p)
 ****
 33  34 0
 6-311+G(2d,p)
 ****
 1  2  14  15  16  17  18  19  20  21  22  24  25  26 0
 3-21G
 ****
 27  35  36  37  38  39  40  41  42  43  44  45 0
 3-21G
 ****


