%nproc=1
%NoSave
%Mem=1900MB
#P OB98/GEN NMR

erre ene a

0 1
  C       41.335      61.367     -91.559
  O       42.267      62.051     -92.380
  P       43.558      61.304     -92.953
  C       45.523      61.959     -94.566
  O       44.248      62.249     -94.037
  C       45.859      62.993     -95.648
  O       44.989      62.822     -96.786
  C       45.687      64.420     -95.133
  O       46.923      64.935     -94.665
  C       45.151      65.149     -96.351
  O       46.227      65.506     -97.238
  C       44.261      64.061     -96.998
  N       42.893      63.882     -96.476
  C       41.940      64.873     -96.688
  O       42.155      65.902     -97.321
  N       40.712      64.650     -96.116
  C       40.351      63.538     -95.413
  O       39.350      63.457     -94.711
  C       41.302      62.424     -95.459
  C       42.517      62.650     -95.959
  O       42.933      60.125     -93.834
  O       44.511      60.789     -91.925
  H       45.849      66.079     -97.929
  H       42.934      59.286     -93.338
  H       40.061      65.428     -96.147
  H       41.002      61.475     -95.037
  H       43.252      61.849     -95.969
  H       44.176      64.217     -98.079
  H       44.666      66.082     -96.070
  H       44.926      64.450     -94.344
  H       46.890      62.831     -95.985
  H       45.534      60.948     -94.987
  H       46.275      61.987     -93.770
  P       46.956      66.342     -93.904
  C       48.682      67.587     -92.477
  O       48.388      66.400     -93.186
  O       45.784      66.626     -93.024
  O       47.071      67.402     -95.100
  H       46.186      67.764     -95.309
  H       49.592      67.432     -91.894
  H       47.862      67.843     -91.799
  H       48.849      68.406     -93.182
  H       40.547      62.035     -91.280
  H       41.829      61.011     -90.679
  H       40.926      60.538     -92.098

 3  4  5  6  7  8  9  10  11  12  13  23  28  29  30  31  32 0
 6-311+G(2d,p)
 ****
 33  34 0
 6-311+G(2d,p)
 ****
 1  2  14  15  16  17  18  19  20  21  22  24  25  26  27 0
 3-21G
 ****
 35  36  37  38  39  40  41  42  43  44  45 0
 3-21G
 ****


