%nproc=1
%NoSave
%Mem=1900MB
#P OB98/GEN NMR

erre ene a

0 1
  C      557.505     -93.492    -680.594
  O      557.254     -92.437    -681.495
  H      558.545     -93.429    -680.260
  H      557.352     -94.454    -681.087
  H      556.851     -93.416    -679.721
  P      555.741     -92.235    -681.992
  C      555.019     -90.143    -680.630
  O      554.944     -91.554    -680.773
  C      553.881     -89.638    -679.747
  O      552.617     -89.925    -680.401
  C      553.849     -90.278    -678.357
  O      553.466     -89.284    -677.400
  C      552.746     -91.318    -678.467
  O      552.159     -91.637    -677.206
  C      551.793     -90.656    -679.472
  N      550.962     -91.646    -680.150
  C      549.710     -91.214    -680.595
  O      549.348     -90.053    -680.400
  N      548.870     -92.118    -681.198
  C      549.214     -93.368    -681.267
  N      548.326     -94.220    -681.844
  C      550.499     -93.881    -680.751
  C      551.317     -92.977    -680.214
  O      555.156     -93.722    -682.022
  O      555.588     -91.532    -683.301
  H      551.696     -90.830    -676.874
  H      554.489     -93.826    -682.727
  H      550.730     -94.935    -680.810
  H      552.280     -93.261    -679.801
  H      551.141     -89.932    -678.963
  H      553.158     -92.243    -678.887
  H      554.805     -90.719    -678.064
  H      553.958     -88.545    -679.669
  H      547.451     -93.831    -682.176
  H      554.934     -89.681    -681.618
  H      548.477     -95.217    -681.913
  H      555.993     -89.873    -680.199
  P      554.489     -89.011    -676.201
  C      554.637     -86.447    -676.620
  O      555.331     -87.687    -676.549
  O      555.563     -90.188    -676.348
  O      553.848     -89.015    -674.857
  H      555.446     -90.837    -675.628
  H      555.327     -85.665    -676.859
  H      554.177     -86.241    -675.676
  H      553.885     -86.502    -677.379

 6  7  8  9  10  11  12  13  14  15  16  26  30  31  32  33  35 0
 6-311+G(2d,p)
 ****
 37  38 0
 6-311+G(2d,p)
 ****
 1  2  3  4  5  17  18  19  20  21  22  23  24  25 0
 3-21G
 ****
 27  28  29  34  36  39  40  41  42  43  44  45  46 0
 3-21G
 ****


