%nproc=1
%NoSave
%Mem=1900MB
#P OB98/GEN NMR

erre ene a

0 1
  C      507.615     237.802    -896.720
  O      506.241     237.419    -896.700
  P      505.176     238.463    -897.290
  C      504.431     240.868    -896.630
  O      505.029     239.636    -896.230
  C      504.878     241.999    -895.690
  O      506.288     242.278    -895.870
  C      504.158     243.307    -895.930
  O      502.861     243.324    -895.370
  C      505.097     244.316    -895.280
  O      504.880     244.393    -893.860
  C      506.480     243.682    -895.580
  N      507.187     244.376    -896.670
  C      507.838     245.549    -896.330
  O      507.811     246.013    -895.190
  N      508.489     246.196    -897.350
  C      508.516     245.804    -898.650
  O      509.056     246.462    -899.520
  C      507.783     244.557    -898.960
  C      507.161     243.919    -897.970
  O      503.791     237.673    -897.180
  O      505.459     238.917    -898.700
  H      503.959     244.705    -893.740
  H      503.212     237.904    -897.940
  H      508.981     247.051    -897.110
  H      507.765     244.227    -900.000
  H      506.605     243.020    -898.180
  H      507.113     243.720    -894.680
  H      504.982     245.324    -895.670
  H      504.108     243.530    -897.020
  H      504.717     241.672    -894.650
  H      503.343     240.764    -896.590
  H      504.736     241.089    -897.650
  P      501.831     244.447    -895.880
  C      502.078     247.034    -896.090
  O      502.501     245.845    -895.470
  O      500.614     244.230    -894.850
  O      501.474     244.274    -897.320
  H      500.928     243.943    -893.980
  H      501.008     247.024    -896.310
  H      502.629     247.185    -897.020
  H      502.305     247.871    -895.410
  H      508.210     237.018    -896.300
  H      507.745     238.695    -896.145
  H      507.921     237.980    -897.730

 3  4  5  6  7  8  9  10  11  12  13  23  28  29  30  31  32 0
 6-311+G(2d,p)
 ****
 33  34 0
 6-311+G(2d,p)
 ****
 1  2  14  15  16  17  18  19  20  21  22  24  25  26 0
 3-21G
 ****
 27  35  36  37  38  39  40  41  42  43  44  45 0
 3-21G
 ****


