%nproc=1
%NoSave
%Mem=1900MB
#P OB98/GEN NMR

erre ene a

0 1
  C      236.306     506.232    -287.982
  O      235.656     505.913    -286.764
  P      234.043     505.953    -286.766
  C      233.639     507.594    -284.803
  O      233.548     506.264    -285.257
  C      233.570     507.676    -283.265
  O      232.534     506.797    -282.750
  C      234.878     507.284    -282.578
  O      235.003     508.074    -281.397
  C      234.643     505.836    -282.180
  O      235.530     505.413    -281.149
  C      233.165     505.910    -281.794
  N      233.524     501.073    -280.176
  C      234.337     502.159    -280.005
  N      234.174     503.406    -280.487
  C      233.019     503.489    -281.184
  C      232.109     502.491    -281.439
  C      232.394     501.223    -280.915
  N      231.600     500.121    -281.116
  N      231.082     502.955    -282.245
  C      231.367     504.240    -282.433
  N      232.513     504.605    -281.802
  O      233.636     504.421    -286.995
  O      233.464     506.837    -287.815
  H      235.279     504.506    -280.881
  H      233.279     504.304    -287.886
  H      235.225     501.989    -279.408
  H      230.783     504.916    -283.058
  H      233.011     506.333    -280.780
  H      234.779     505.193    -283.053
  H      235.776     507.385    -283.199
  H      233.293     508.712    -282.976
  H      232.803     508.196    -285.221
  H      231.910     499.237    -280.720
  H      230.787     500.205    -281.701
  H      234.545     508.051    -285.179
  P      236.218     509.133    -281.345
  C      237.221     508.395    -279.056
  O      236.529     509.390    -279.806
  O      235.538     510.488    -281.851
  O      237.381     508.725    -282.175
  H      236.214     511.078    -282.244
  H      237.940     508.895    -278.398
  H      237.757     507.698    -279.708
  H      236.498     507.847    -278.456
  H      237.366     506.169    -287.848
  H      236.042     507.226    -288.277
  H      236.001     505.542    -288.741

 3  4  5  6  7  8  9  10  11  12  22  25  29  30  31  32 0
 6-311+G(2d,p)
 ****
 33  36  37 0
 6-311+G(2d,p)
 ****
 1  2  13  14  15  16  17  18  19  20  21  23  24  26 0
 3-21G
 ****
 27  28  34  35  38  39  40  41  42  43  44  45  46  47  48 0
 3-21G
 ****


