%nproc=1
%NoSave
%Mem=1900MB
#P OB98/GEN NMR

erre ene a

0 1
  C      118.427     -95.313      92.492
  O      119.508     -94.422      92.218
  P      119.974     -94.208      90.697
  C      122.429     -94.343      91.444
  O      121.466     -93.616      90.692
  C      123.744     -93.570      91.613
  O      124.440     -93.448      90.344
  C      123.574     -92.152      92.177
  O      124.706     -91.898      93.017
  C      123.630     -91.298      90.927
  O      123.911     -89.936      91.211
  C      124.701     -92.047      90.129
  N      124.685     -91.706      88.715
  C      125.103     -90.422      88.362
  O      125.367     -89.598      89.238
  N      125.180     -90.100      87.029
  C      124.733     -90.935      86.143
  N      124.846     -90.588      84.832
  C      124.117     -92.228      86.493
  C      124.150     -92.555      87.780
  O      119.005     -93.480      89.827
  O      120.192     -95.711      90.179
  H      123.808     -89.411      90.389
  H      119.941     -95.758      89.235
  H      123.684     -92.853      85.726
  H      123.730     -93.485      88.137
  H      125.702     -91.836      90.528
  H      122.664     -91.342      90.408
  H      122.658     -92.024      92.762
  H      124.392     -94.153      92.281
  H      125.248     -89.686      84.608
  H      122.633     -95.292      90.939
  H      124.568     -91.205      84.080
  H      121.999     -94.604      92.417
  P      124.480     -91.743      94.599
  C      125.274     -89.268      94.570
  O      125.427     -90.559      95.118
  O      125.236     -93.044      95.164
  O      123.062     -91.735      95.064
  H      124.854     -93.279      96.031
  H      125.782     -88.551      95.220
  H      124.219     -88.987      94.501
  H      125.731     -89.229      93.577
  H      118.246     -95.340      93.546
  H      118.678     -96.295      92.148
  H      117.547     -94.972      91.987

 3  4  5  6  7  8  9  10  11  12  13  23  27  28  29  30  32 0
 6-311+G(2d,p)
 ****
 34  35 0
 6-311+G(2d,p)
 ****
 1  2  14  15  16  17  18  19  20  21  22  24  25  26 0
 3-21G
 ****
 31  33  36  37  38  39  40  41  42  43  44  45  46 0
 3-21G
 ****


