%nproc=1
%NoSave
%Mem=1900MB
#P OB98/GEN NMR

erre ene a

0 1
  C     -573.069     429.748    -123.038
  O     -573.275     428.572    -122.291
  H     -572.139     430.220    -122.705
  H     -573.895     430.449    -122.871
  H     -572.987     429.519    -124.103
  P     -574.579     427.704    -122.657
  C     -577.150     428.118    -122.575
  O     -575.843     428.658    -122.389
  C     -578.194     429.131    -122.131
  O     -578.087     429.338    -120.702
  C     -578.039     430.508    -122.758
  O     -578.557     430.550    -124.079
  C     -578.816     431.375    -121.775
  O     -580.219     431.350    -122.045
  C     -578.530     430.693    -120.432
  N     -577.634     434.838    -117.602
  C     -578.761     434.369    -118.188
  N     -578.916     433.240    -118.913
  C     -577.757     432.566    -118.996
  C     -576.530     432.922    -118.461
  C     -576.494     434.126    -117.727
  N     -575.340     434.624    -117.166
  N     -575.560     432.003    -118.801
  C     -576.194     431.098    -119.521
  N     -577.521     431.394    -119.666
  O     -574.649     426.638    -121.461
  O     -574.546     427.042    -123.995
  H     -580.334     431.663    -122.963
  H     -574.207     425.811    -121.733
  H     -579.649     434.978    -118.057
  H     -575.740     430.220    -119.969
  H     -579.422     430.618    -119.803
  H     -578.489     432.419    -121.821
  H     -576.981     430.814    -122.750
  H     -579.191     428.719    -122.338
  H     -577.246     427.206    -121.971
  H     -577.278     427.859    -123.636
  H     -575.381     435.502    -116.674
  H     -574.466     434.149    -117.345
  P     -577.827     431.483    -125.156
  C     -578.125     433.959    -125.915
  O     -578.283     432.998    -124.880
  O     -578.560     431.112    -126.528
  O     -576.338     431.296    -125.247
  H     -578.014     430.494    -127.046
  H     -578.474     434.911    -125.574
  H     -578.692     433.658    -126.771
  H     -577.091     434.032    -126.179

 6  7  8  9  10  11  12  13  14  15  25  28  32  33  34  35 0
 6-311+G(2d,p)
 ****
 36  37  40 0
 6-311+G(2d,p)
 ****
 1  2  3  4  5  16  17  18  19  20  21  22  23  24 0
 3-21G
 ****
 26  27  29  30  31  38  39 41  42  43  44  45  46  47  48 0
 3-21G
 ****


