%nproc=1
%NoSave
%Mem=1900MB
#P OB98/GEN NMR

erre ene a

0 1
  C      278.311     325.401    -217.841
  O      276.906     325.260    -217.777
  H      278.563     326.032    -218.699
  H      278.793     324.430    -217.970
  H      278.682     325.886    -216.933
  P      276.280     324.253    -216.703
  C      275.909     322.031    -217.952
  O      276.776     322.782    -217.111
  C      276.698     321.330    -219.059
  O      277.594     320.362    -218.444
  C      275.816     320.591    -220.070
  O      276.398     320.732    -221.367
  C      275.905     319.154    -219.599
  O      275.621     318.245    -220.648
  C      277.331     319.079    -219.043
  N      277.465     317.987    -218.077
  C      277.754     316.722    -218.600
  O      277.898     316.571    -219.818
  N      277.810     315.649    -217.750
  C      277.542     315.810    -216.494
  N      277.577     314.697    -215.713
  C      277.203     317.118    -215.899
  C      277.185     318.154    -216.739
  O      274.810     324.373    -216.467
  O      277.111     324.561    -215.368
  H      275.722     317.327    -220.318
  H      276.661     325.250    -214.843
  H      276.984     317.198    -214.848
  H      276.936     319.152    -216.396
  H      278.056     318.925    -219.850
  H      275.176     318.981    -218.797
  H      274.783     320.954    -220.082
  H      277.332     322.073    -219.559
  H      277.788     313.816    -216.169
  H      275.188     322.726    -218.397
  H      277.343     314.688    -214.730
  H      275.362     321.293    -217.355
  P      276.244     322.100    -222.193
  C      273.968     321.555    -223.228
  O      274.680     322.432    -222.361
  O      277.034     322.159    -223.459
  O      276.748     323.224    -221.161
  H      277.136     323.966    -221.662
  H      272.942     321.855    -223.275
  H      274.030     320.555    -222.853
  H      274.397     321.596    -224.207

 6  7  8  9  10  11  12  13  14  15  16  26  30  31  32  33  35 0
 6-311+G(2d,p)
 ****
 37  38 0
 6-311+G(2d,p)
 ****
 1  2  3  4  5  17  18  19  20  21  22  23  24  25 0
 3-21G
 ****
 27  28  29  34  36  39  40  41  42  43  44  45  46 0
 3-21G
 ****


