%nproc=1
%NoSave
%Mem=1900MB
#P OB98/GEN NMR

erre ene a

0 1
  C        0.258     193.200     461.795
  O       -0.411     192.828     463.001
  P       -1.929     193.306     463.209
  C       -3.057     190.982     463.229
  O       -2.729     192.146     463.983
  C       -2.959     189.724     464.108
  O       -1.559     189.353     464.249
  C       -3.483     189.893     465.543
  O       -4.866     189.634     465.790
  C       -2.699     188.807     466.277
  O       -3.354     187.534     466.113
  C       -1.353     188.786     465.558
  N        1.168     189.259     469.984
  C        0.198     188.415     469.589
  N       -0.424     188.358     468.391
  C        0.067     189.283     467.555
  C        1.060     190.209     467.817
  C        1.626     190.181     469.104
  N        2.609     191.053     469.513
  N        1.290     191.005     466.712
  C        0.434     190.573     465.804
  N       -0.318     189.528     466.262
  O       -2.612     193.862     462.005
  O       -1.779     194.429     464.345
  H       -2.778     186.871     466.535
  H       -2.411     195.150     464.161
  H       -0.133     187.688     470.328
  H        0.328     190.993     464.814
  H       -0.970     187.768     465.413
  H       -2.642     188.994     467.354
  H       -3.217     190.877     465.940
  H       -3.485     188.896     463.614
  H       -2.374     190.888     462.381
  H        2.929     190.994     470.466
  H        2.919     191.782     468.885
  H       -4.055     191.128     462.816
  P       -5.542     189.989     467.198
  C       -7.321     191.590     466.146
  O       -7.050     190.403     466.856
  O       -4.796     190.978     468.026
  O       -5.712     188.550     467.873
  H       -6.362     187.973     467.441
  H       -8.365     191.588     465.830
  H       -6.686     191.672     465.262
  H       -7.157     192.457     466.795
  H        1.254     192.810     461.805
  H        0.294     194.267     461.721
  H       -0.273     192.802     460.955

 3  4  5  6  7  8  9  10  11  12  22  25  29  30  31  32 0
 6-311+G(2d,p)
 ****
 33  36  37 0
 6-311+G(2d,p)
 ****
 1  2  13  14  15  16  17  18  19  20  21  23  24  26 0
 3-21G
 ****
 27  28  34  35  38  39  40  41  42  43  44  45  46  47  48 0
 3-21G
 ****


