%nproc=1
%NoSave
%Mem=1900MB
#P OB98/GEN NMR

erre ene a

0 1
  C     -247.108     472.271     106.387
  O     -248.133     472.084     107.344
  H     -246.224     472.671     106.893
  H     -247.420     472.980     105.616
  H     -246.844     471.314     105.930
  P     -249.615     471.770     106.814
  C     -248.722     469.379     106.451
  O     -249.470     470.456     105.895
  C     -249.397     468.036     106.168
  O     -248.518     466.942     106.515
  C     -250.664     467.791     106.973
  O     -251.738     468.643     106.655
  C     -250.835     466.286     106.838
  O     -251.473     465.921     105.612
  C     -249.360     465.807     106.828
  N     -248.975     465.183     108.091
  C     -248.779     463.806     108.053
  O     -248.936     463.123     107.039
  N     -248.423     463.229     109.240
  C     -248.298     463.863     110.439
  O     -247.991     463.278     111.474
  C     -248.553     465.312     110.424
  C     -248.876     465.896     109.266
  O     -250.313     472.910     106.134
  O     -250.379     471.227     108.108
  H     -252.354     466.343     105.617
  H     -251.358     471.229     107.974
  H     -248.257     462.231     109.231
  H     -248.472     465.848     111.357
  H     -249.069     466.970     109.228
  H     -249.205     465.075     106.026
  H     -251.429     465.865     107.650
  H     -250.435     467.983     108.031
  H     -249.591     467.972     105.090
  H     -248.667     469.535     107.534
  H     -247.707     469.387     106.040
  P     -253.184     468.534     107.321
  C     -252.449     469.850     109.458
  O     -253.022     468.670     108.910
  O     -254.086     467.471     106.796
  O     -253.828     469.963     106.929
  H     -254.789     469.819     106.791
  H     -252.419     469.770     110.525
  H     -253.042     470.696     109.181
  H     -251.455     469.972     109.081

 6  7  8  9  10  11  12  13  14  15  16  26  31  32  33  34  35 0
 6-311+G(2d,p)
 ****
 36  37 0
 6-311+G(2d,p)
 ****
 1  2  3  4  5  17  18  19  20  21  22  23  24  25 0
 3-21G
 ****
 27  28  29  30  38  39  40  41  42  43  44  45 0
 3-21G
 ****


