%nproc=1
%NoSave
%Mem=1900MB
#P OB98/GEN NMR

erre ene a

0 1
  C     -399.569      16.205     672.417
  O     -398.884      15.011     672.119
  H     -398.909      16.847     673.012
  H     -400.471      16.002     672.997
  H     -399.827      16.741     671.494
  P     -399.659      13.865     671.307
  C     -397.977      13.974     669.350
  O     -399.337      14.099     669.753
  C     -397.867      13.001     668.168
  O     -398.460      13.644     667.009
  C     -396.410      12.650     667.832
  O     -396.176      11.241     667.778
  C     -396.135      13.455     666.571
  O     -395.130      12.918     665.728
  C     -397.516      13.574     665.918
  N     -397.666      14.724     665.033
  C     -397.931      14.462     663.686
  O     -398.072      13.345     663.199
  N     -398.040      15.568     662.889
  C     -397.911      16.872     663.278
  O     -398.032      17.814     662.512
  C     -397.608      17.076     664.699
  C     -397.502      16.017     665.502
  O     -401.105      13.710     671.630
  O     -398.834      12.532     671.644
  H     -395.349      11.977     665.580
  H     -399.321      12.007     672.310
  H     -398.246      15.394     661.913
  H     -397.490      18.095     665.043
  H     -397.279      16.130     666.558
  H     -397.747      12.669     665.336
  H     -395.800      14.459     666.870
  H     -395.734      12.984     668.625
  H     -398.465      12.106     668.389
  H     -397.407      13.593     670.203
  H     -397.583      14.952     669.060
  P     -395.200      10.440     668.756
  C     -396.754      10.722     670.854
  O     -395.488      10.932     670.255
  O     -393.776      10.363     668.326
  O     -395.797       8.944     668.739
  H     -395.032       8.336     668.845
  H     -396.748      11.118     671.848
  H     -396.962       9.673     670.889
  H     -397.508      11.216     670.278

 6  7  8  9  10  11  12  13  14  15  16  26  31  32  33  34  35 0
 6-311+G(2d,p)
 ****
 36  37 0
 6-311+G(2d,p)
 ****
 1  2  3  4  5  17  18  19  20  21  22  23  24  25 0
 3-21G
 ****
 27  28  29  30  38  39  40  41  42  43  44  45 0
 3-21G
 ****


