%nproc=1
%NoSave
%Mem=1900MB
#P OB98/GEN NMR

erre ene a

0 1
  C     -434.712     778.198    -377.877
  O     -434.046     776.959    -378.070
  P     -432.443     776.983    -378.162
  C     -430.719     777.315    -380.058
  O     -432.088     777.364    -379.686
  C     -430.517     777.881    -381.457
  O     -431.063     776.927    -382.428
  C     -431.208     779.234    -381.705
  O     -430.314     780.106    -382.427
  C     -432.368     778.878    -382.638
  O     -432.770     779.994    -383.428
  C     -431.744     777.722    -383.432
  N     -432.778     775.714    -387.950
  C     -431.597     776.275    -387.482
  N     -430.574     776.361    -388.356
  N     -431.448     776.719    -386.259
  C     -432.547     776.540    -385.480
  C     -433.750     775.994    -385.831
  C     -433.933     775.557    -387.190
  O     -434.973     775.137    -387.703
  N     -434.617     775.957    -384.751
  C     -433.929     776.498    -383.760
  N     -432.684     776.907    -384.164
  O     -432.065     775.421    -378.068
  O     -431.758     777.777    -377.114
  H     -431.947     780.425    -383.725
  H     -431.440     775.286    -377.325
  H     -432.851     775.408    -388.917
  H     -434.302     776.638    -382.742
  H     -430.998     778.101    -384.135
  H     -433.216     778.540    -382.035
  H     -430.613     776.016    -389.307
  H     -431.554     779.737    -380.787
  H     -429.706     776.744    -388.028
  H     -429.443     777.951    -381.662
  H     -430.373     776.267    -380.030
  H     -430.124     777.892    -379.334
  P     -430.102     781.553    -381.797
  C     -431.512     783.714    -382.192
  O     -431.500     782.326    -381.941
  O     -429.159     782.288    -382.872
  O     -429.487     781.542    -380.423
  H     -428.640     783.005    -382.449
  H     -430.522     784.098    -382.440
  H     -431.889     784.226    -381.307
  H     -432.186     783.922    -383.028
  H     -435.768     778.032    -377.835
  H     -434.486     778.855    -378.691
  H     -434.384     778.640    -376.960

 3  4  5  6  7  8  9  10  11  12  23  26  30  31  33  0
 6-311+G(2d,p)
 ****
 35  36  37  38 0
 6-311+G(2d,p)
 ****
 1  2  13  14  15  16  17  18  19  20  21  22  24  25  27  28  29 0
 3-21G
 ****
 32  34  39  40  41  42  43  44  45  46  47  48  49 0
 3-21G
 ****


