%nproc=1
%NoSave
%Mem=1900MB
#P OB98/GEN NMR

erre ene a

0 1
  C     1262.013    -582.400     531.255
  O     1261.277    -581.395     530.574
  P     1259.717    -581.692     530.285
  C     1258.918    -580.466     532.440
  O     1258.879    -580.534     531.002
  C     1258.087    -579.265     532.924
  O     1258.772    -578.035     532.731
  C     1256.748    -579.098     532.178
  O     1255.745    -579.960     532.651
  C     1256.409    -577.634     532.523
  O     1255.832    -577.571     533.833
  C     1257.807    -576.977     532.464
  N     1257.291    -572.664     529.867
  C     1257.075    -572.925     531.200
  N     1256.550    -571.911     531.946
  N     1257.287    -574.096     531.795
  C     1257.776    -575.008     530.916
  C     1258.100    -574.866     529.586
  C     1257.819    -573.595     528.962
  O     1257.961    -573.299     527.772
  N     1258.609    -576.029     529.068
  C     1258.637    -576.864     530.073
  N     1258.093    -576.294     531.218
  O     1259.412    -582.994     531.166
  O     1259.384    -581.912     528.834
  H     1254.975    -578.052     533.789
  H     1258.577    -583.412     530.863
  H     1257.103    -571.760     529.482
  H     1258.988    -577.871     530.031
  H     1257.910    -576.269     533.284
  H     1255.704    -577.194     531.803
  H     1256.263    -571.028     531.524
  H     1256.867    -579.200     531.079
  H     1256.294    -572.097     532.906
  H     1257.886    -579.391     533.995
  H     1259.958    -580.335     532.755
  H     1258.495    -581.394     532.846
  P     1254.819    -580.681     531.548
  C     1255.631    -583.016     532.497
  O     1254.525    -582.140     532.138
  O     1255.840    -580.956     530.327
  O     1253.629    -579.886     531.104
  H     1255.394    -581.009     529.499
  H     1255.246    -583.811     533.100
  H     1256.385    -582.451     533.067
  H     1256.087    -583.410     531.574
  H     1263.025    -582.077     531.381
  H     1261.995    -583.304     530.683
  H     1261.573    -582.576     532.214

 3  4  5  6  7  8  9  10  11  12  23  26  30  31 0
 6-311+G(2d,p)
 ****
 33  35  36  37  38 0
 6-311+G(2d,p)
 ****
 1  2  13  14  15  16  17  18  19  20  21  22  24  25 0
 3-21G
 ****
 27  28  29  32  34  39  40  41  42  43  44  45  46  47  48  49 0
 3-21G
 ****


