%nproc=1
%NoSave
%Mem=1900MB
#P OB98/GEN NMR

erre ene a

0 1
  C      319.191      50.586    -100.963
  O      318.188      49.644    -101.282
  H      319.857      50.184    -100.195
  H      319.779      50.794    -101.862
  H      318.737      51.518    -100.613
  P      317.232      49.172    -100.082
  C      315.361      50.423     -98.775
  O      316.567      50.522     -99.519
  C      315.252      51.616     -97.830
  O      316.386      51.641     -96.932
  C      315.257      52.965     -98.540
  O      313.979      53.319     -99.043
  C      315.674      53.881     -97.404
  O      314.558      54.109     -96.525
  C      316.743      53.031     -96.698
  N      320.987      55.840     -96.142
  C      319.828      55.810     -95.448
  N      318.755      55.018     -95.646
  C      318.964      54.185     -96.677
  C      320.094      54.093     -97.472
  C      321.144      54.979     -97.173
  N      322.315      55.034     -97.897
  N      319.928      53.128     -98.446
  C      318.726      52.637     -98.229
  N      318.089      53.263     -97.191
  O      318.252      48.762     -98.919
  O      316.255      48.093    -100.410
  H      314.212      53.233     -96.273
  H      317.792      48.252     -98.226
  H      319.752      56.519     -94.628
  H      318.268      51.838     -98.799
  H      316.761      53.193     -95.614
  H      316.014      54.859     -97.753
  H      316.019      53.002     -99.329
  H      314.348      51.492     -97.223
  H      315.373      49.495     -98.196
  H      322.941      55.799     -97.701
  H      322.380      54.504     -98.753
  H      314.510      50.408     -99.463
  P      313.925      54.375    -100.253
  C      314.314      54.108    -102.806
  O      314.663      53.678    -101.497
  O      314.966      55.499     -99.790
  O      312.572      54.937    -100.530
  H      314.696      56.379    -100.115
  H      314.883      53.558    -103.526
  H      314.526      55.152    -102.907
  H      313.271      53.938    -102.971

 6  7  8  9  10  11  12  13  14  15  25  28  32  33  34  35 0
 6-311+G(2d,p)
 ****
 36  39  40 0
 6-311+G(2d,p)
 ****
 1  2  3  4  5  16  17  18  19  20  21  22  23  24 0
 3-21G
 ****
 26  27  29  30  31  37  38  41  42  43  44  45  46  47 0
 3-21G
 ****
 48 0
 3-21G
 ****


