%nproc=1
%NoSave
%Mem=1900MB
#P OB98/GEN NMR

erre ene a

0 1
  C     -381.828    -487.669      31.552
  O     -381.151    -487.172      32.685
  H     -381.322    -487.303      30.655
  H     -382.860    -487.304      31.546
  H     -381.825    -488.761      31.534
  P     -381.479    -487.806      34.118
  C     -379.206    -488.662      34.993
  O     -380.431    -488.996      34.358
  C     -378.012    -489.131      34.152
  O     -378.064    -488.481      32.858
  C     -376.681    -488.738      34.797
  O     -375.629    -489.633      34.453
  C     -376.396    -487.379      34.176
  O     -375.013    -487.027      34.205
  C     -376.955    -487.569      32.769
  N     -375.801    -482.724      31.681
  C     -375.149    -483.610      32.517
  N     -374.042    -483.147      33.139
  N     -375.557    -484.834      32.734
  C     -376.716    -485.139      32.102
  C     -377.466    -484.340      31.270
  C     -376.983    -483.001      31.007
  O     -377.535    -482.166      30.295
  N     -378.585    -484.993      30.821
  C     -378.515    -486.184      31.383
  N     -377.388    -486.328      32.152
  O     -382.852    -488.598      33.877
  O     -381.601    -486.828      35.246
  H     -374.515    -487.769      33.820
  H     -383.322    -488.728      34.718
  H     -375.428    -481.806      31.525
  H     -379.243    -486.975      31.256
  H     -376.202    -488.018      32.112
  H     -376.934    -486.620      34.751
  H     -373.812    -482.163      33.150
  H     -376.743    -488.666      35.881
  H     -373.741    -483.659      33.973
  H     -378.084    -490.208      33.969
  H     -379.208    -489.155      35.967
  H     -379.150    -487.588      35.172
  P     -375.373    -490.911      35.388
  C     -376.271    -492.909      33.903
  O     -376.414    -492.065      35.024
  O     -375.836    -490.419      36.836
  O     -373.957    -491.399      35.387
  H     -375.075    -490.398      37.446
  H     -377.088    -493.599      33.869
  H     -375.351    -493.450      33.979
  H     -376.266    -492.319      33.011

 6  7  8  9  10  11  12  13  14  15  26  29  33  34 0
 6-311+G(2d,p)
 ****
 36  38  39  40  41 0
 6-311+G(2d,p)
 ****
 1  2  3  4  5  16  17  18  19  20  21  22  23  24  25 0
 3-21G
 ****
 27  28  30  31  32  35  37  42  43  44  45  46  47 0
 3-21G
 ****
 48  49 0
 3-21G
 ****


