%nproc=1
%NoSave
%Mem=1900MB
#P OB98/GEN NMR

erre ene a

0 1
  C      -52.764    -108.872      19.657
  O      -53.757    -108.693      18.662
  P      -53.606    -107.455      17.657
  C      -53.230    -104.893      17.854
  O      -53.432    -106.122      18.536
  C      -52.659    -103.834      18.798
  O      -51.505    -104.375      19.495
  C      -52.202    -102.558      18.084
  O      -52.429    -101.428      18.940
  C      -50.704    -102.740      17.963
  O      -50.034    -101.487      17.824
  C      -50.398    -103.481      19.264
  N      -45.367    -103.067      19.054
  C      -46.312    -102.115      19.379
  N      -45.855    -100.862      19.592
  N      -47.588    -102.369      19.491
  C      -47.900    -103.665      19.244
  C      -47.051    -104.702      18.928
  C      -45.643    -104.403      18.796
  O      -44.759    -105.194      18.483
  N      -47.733    -105.881      18.784
  C      -48.997    -105.557      18.968
  N      -49.153    -104.217      19.214
  O      -55.078    -107.310      17.044
  O      -52.595    -107.647      16.578
  H      -49.077    -101.679      17.795
  H      -55.091    -107.650      16.130
  H      -44.395    -102.818      18.969
  H      -49.834    -106.240      18.910
  H      -50.348    -102.792      20.116
  H      -50.468    -103.352      17.085
  H      -44.893    -100.587      19.456
  H      -52.683    -102.383      17.116
  H      -46.532    -100.136      19.788
  H      -53.412    -103.602      19.560
  H      -54.185    -104.543      17.461
  H      -52.550    -105.050      17.010
  P      -52.862    -100.067      18.206
  C      -51.519     -98.385      16.743
  O      -51.667     -99.713      17.201
  O      -52.728     -98.968      19.360
  O      -54.228    -100.102      17.607
  H      -53.319     -98.214      19.178
  H      -50.562     -97.993      17.096
  H      -52.322     -97.732      17.095
  H      -51.521     -98.385      15.649
  H      -53.001    -109.733      20.246
  H      -52.730    -108.008      20.287
  H      -51.812    -109.010      19.190

 3  4  5  6  7  8  9  10  11  12  23  26  30  31 0
 6-311+G(2d,p)
 ****
 33  35  36  37  38 0
 6-311+G(2d,p)
 ****
 1  2  13  14  15  16  17  18  19  20  21  22  24  25 0
 3-21G
 ****
 27  28  29  32  34  39  40  41  42  43  44  45  46  47  48  49 0
 3-21G
 ****


