%nproc=1
%NoSave
%Mem=1900MB
#P OB98/GEN NMR

erre ene a

0 1
  C     -255.644    -354.207     808.153
  O     -256.283    -355.456     808.305
  P     -257.158    -355.775     809.609
  C     -259.421    -356.468     808.586
  O     -258.686    -355.428     809.239
  C     -259.614    -356.119     807.116
  O     -258.337    -355.939     806.445
  C     -260.308    -357.213     806.309
  O     -261.655    -357.498     806.619
  C     -259.996    -356.770     804.888
  O     -260.898    -355.742     804.456
  C     -258.560    -356.213     805.034
  N     -257.556    -357.122     804.485
  C     -257.434    -357.129     803.103
  O     -258.119    -356.427     802.357
  N     -256.515    -358.004     802.590
  C     -255.760    -358.884     803.298
  O     -254.999    -359.676     802.777
  C     -255.947    -358.847     804.764
  C     -256.822    -357.981     805.282
  O     -256.667    -355.141     810.872
  O     -257.175    -357.385     809.655
  H     -260.698    -354.939     804.971
  H     -257.566    -357.802     808.876
  H     -256.423    -358.039     801.588
  H     -255.350    -359.528     805.360
  H     -256.973    -357.930     806.366
  H     -258.471    -355.246     804.518
  H     -260.092    -357.597     804.175
  H     -259.763    -358.153     806.469
  H     -260.152    -355.170     807.047
  H     -260.403    -356.555     809.069
  H     -258.900    -357.426     808.713
  P     -262.131    -358.835     807.354
  C     -263.122    -357.716     809.478
  O     -262.136    -358.568     808.936
  O     -261.529    -360.116     806.867
  O     -263.708    -358.839     807.018
  H     -264.017    -359.766     806.963
  H     -262.951    -357.622     810.558
  H     -264.123    -358.141     809.329
  H     -263.071    -356.724     809.024
  H     -255.113    -354.189     807.224
  H     -254.957    -354.057     808.959
  H     -256.377    -353.428     808.160

 3  4  5  6  7  8  9  10  11  12  13  23  28  29  30  31  32 0
 6-311+G(2d,p)
 ****
 33  34 0
 6-311+G(2d,p)
 ****
 1  2  14  15  16  17  18  19  20  21  22  24  25  26  27 0
 3-21G
 ****
 35  36  37  38  39  40  41  42  43  44  45 0
 3-21G
 ****


