%nproc=1
%NoSave
%Mem=1900MB
#P OB98/GEN NMR

erre ene a

0 1
  C      146.789     128.308    -199.358
  O      147.614     128.079    -198.231
  H      147.409     128.289    -200.260
  H      146.307     129.286    -199.289
  H      146.030     127.526    -199.441
  P      146.932     128.066    -196.782
  C      147.408     125.601    -196.170
  O      146.429     126.564    -196.548
  C      146.775     124.530    -195.289
  O      146.114     125.132    -194.157
  C      145.722     123.679    -195.999
  O      146.342     122.666    -196.773
  C      144.950     123.139    -194.807
  O      145.701     122.077    -194.186
  C      144.908     124.371    -193.883
  N      140.114     125.305    -192.518
  C      140.964     124.277    -192.143
  N      140.439     123.342    -191.322
  N      142.202     124.164    -192.554
  C      142.559     125.135    -193.427
  C      141.805     126.189    -193.883
  C      140.462     126.339    -193.379
  O      139.685     127.241    -193.675
  N      142.497     126.930    -194.818
  C      143.671     126.339    -194.891
  N      143.761     125.240    -194.078
  O      145.879     129.102    -196.535
  O      148.164     128.204    -195.771
  H      145.915     121.434    -194.888
  H      148.329     129.135    -195.543
  H      139.170     125.326    -192.180
  H      144.500     126.677    -195.514
  H      144.931     124.096    -192.823
  H      143.974     122.738    -195.072
  H      139.438     123.230    -191.211
  H      145.040     124.296    -196.601
  H      141.023     122.557    -191.073
  H      147.583     123.901    -194.891
  H      148.196     126.127    -195.629
  H      147.842     125.133    -197.062
  P      145.534     121.894    -197.933
  C      146.510     123.664    -199.548
  O      145.348     122.988    -199.092
  O      144.278     121.236    -197.486
  O      146.608     120.900    -198.568
  H      146.642     120.017    -198.117
  H      146.240     124.359    -200.315
  H      147.206     122.952    -199.940
  H      146.960     124.190    -198.732

 6  7  8  9  10  11  12  13  14  15  26  29  33  34 0
 6-311+G(2d,p)
 ****
 36  38  39  40  41 0
 6-311+G(2d,p)
 ****
 1  2  3  4  5  16  17  18  19  20  21  22  23  24  25 0
 3-21G
 ****
 27  28  30  31  32  35  37  42  43  44  45  46  47 0
 3-21G
 ****
 48  49 0
 3-21G
 ****


