%nproc=1
%NoSave
%Mem=1900MB
#P OB98/GEN NMR

erre ene a

0 1
  C     -775.529    -537.825    -481.061
  O     -774.206    -538.322    -481.074
  H     -776.054    -538.203    -481.941
  H     -775.517    -536.730    -481.103
  H     -776.054    -538.156    -480.158
  P     -773.308    -538.026    -479.780
  C     -771.338    -536.876    -481.089
  O     -771.777    -537.956    -480.269
  C     -769.817    -536.925    -481.245
  O     -769.158    -536.604    -480.015
  C     -769.282    -538.306    -481.599
  O     -769.586    -538.687    -482.924
  C     -767.799    -538.095    -481.345
  O     -767.175    -537.402    -482.433
  C     -767.833    -537.205    -480.073
  N     -767.510    -537.945    -478.861
  C     -766.147    -538.072    -478.569
  O     -765.305    -537.572    -479.310
  N     -765.786    -538.801    -477.463
  C     -766.693    -539.324    -476.705
  N     -766.261    -540.039    -475.624
  C     -768.142    -539.192    -476.956
  C     -768.473    -538.506    -478.054
  O     -773.362    -539.413    -478.993
  O     -773.726    -536.840    -478.978
  H     -767.039    -538.066    -483.138
  H     -773.107    -540.179    -479.529
  H     -768.865    -539.638    -476.292
  H     -769.512    -538.361    -478.311
  H     -767.113    -536.374    -480.168
  H     -767.269    -539.044    -481.220
  H     -769.649    -539.047    -480.879
  H     -769.531    -536.176    -481.996
  H     -765.261    -540.127    -475.492
  H     -771.656    -535.915    -480.670
  H     -766.877    -540.522    -474.984
  H     -771.822    -536.988    -482.068
  P     -770.547    -539.942    -483.210
  C     -769.271    -540.869    -485.247
  O     -770.458    -540.230    -484.788
  O     -771.938    -539.815    -482.679
  O     -769.731    -541.181    -482.600
  H     -768.849    -541.327    -482.995
  H     -769.327    -541.007    -486.307
  H     -769.170    -541.821    -484.768
  H     -768.424    -540.260    -485.011

 6  7  8  9  10  11  12  13  14  15  16  26  30  31  32  33  35 0
 6-311+G(2d,p)
 ****
 37  38 0
 6-311+G(2d,p)
 ****
 1  2  3  4  5  17  18  19  20  21  22  23  24  25 0
 3-21G
 ****
 27  28  29  34  36  39  40  41  42  43  44  45  46 0
 3-21G
 ****


