%nproc=1
%NoSave
%Mem=1900MB
#P OB98/GEN NMR

erre ene a

0 1
  C     -349.801    -275.423     -59.083
  O     -350.209    -274.065     -58.878
  P     -349.447    -272.911     -59.693
  C     -350.045    -271.017     -57.940
  O     -350.025    -271.479     -59.276
  C     -350.798    -269.674     -57.885
  O     -350.258    -268.751     -58.858
  C     -352.292    -269.799     -58.193
  O     -353.045    -270.127     -57.035
  C     -352.618    -268.435     -58.769
  O     -352.751    -267.466     -57.716
  C     -351.351    -268.159     -59.614
  N     -351.310    -268.683     -60.999
  C     -351.670    -267.862     -62.060
  O     -352.046    -266.699     -61.942
  N     -351.587    -268.423     -63.312
  C     -351.017    -269.635     -63.623
  O     -350.915    -270.058     -64.763
  C     -350.509    -270.392     -62.470
  C     -350.687    -269.903     -61.244
  O     -349.961    -273.101     -61.194
  O     -347.948    -272.968     -59.597
  H     -352.830    -266.590     -58.149
  H     -349.214    -273.355     -61.781
  H     -351.911    -267.875     -64.088
  H     -350.016    -271.335     -62.669
  H     -350.312    -270.466     -60.388
  H     -351.154    -267.077     -59.675
  H     -353.581    -268.445     -59.301
  H     -352.451    -270.546     -58.983
  H     -350.668    -269.237     -56.886
  H     -349.036    -270.886     -57.557
  H     -350.545    -271.749     -57.305
  P     -354.071    -271.353     -57.060
  C     -356.061    -270.292     -55.830
  O     -354.981    -271.197     -55.739
  O     -353.478    -272.710     -57.283
  O     -355.100    -270.954     -58.243
  H     -354.849    -271.377     -59.086
  H     -356.668    -270.388     -54.925
  H     -356.665    -270.507     -56.712
  H     -355.688    -269.264     -55.883
  H     -350.398    -276.070     -58.475
  H     -348.771    -275.530     -58.814
  H     -349.930    -275.682     -60.113

 3  4  5  6  7  8  9  10  11  12  13  23  28  29  30  31  32 0
 6-311+G(2d,p)
 ****
 33  34 0
 6-311+G(2d,p)
 ****
 1  2  14  15  16  17  18  19  20  21  22  24  25  26  27 0
 3-21G
 ****
 35  36  37  38  39  40  41  42  43  44  45 0
 3-21G
 ****


