%nproc=1
%NoSave
%Mem=1900MB
#P OB98/GEN NMR

erre ene a

0 1
  C      408.484    -892.600     301.424
  O      407.497    -892.560     302.446
  P      407.602    -891.730     303.803
  C      408.758    -893.540     305.332
  O      408.848    -892.310     304.639
  C      410.144    -894.150     305.554
  O      410.944    -893.220     306.349
  C      410.076    -895.480     306.352
  O      410.962    -896.480     305.850
  C      410.291    -895.020     307.783
  O      410.720    -896.060     308.641
  C      411.271    -893.850     307.615
  N      411.719    -893.040     312.631
  C      411.701    -894.240     311.945
  N      411.817    -895.370     312.666
  N      411.584    -894.320     310.634
  C      411.411    -893.120     310.031
  C      411.380    -891.880     310.623
  C      411.570    -891.790     312.051
  O      411.601    -890.760     312.715
  N      411.190    -890.890     309.677
  C      411.064    -891.530     308.547
  N      411.218    -892.890     308.704
  O      406.323    -891.530     304.546
  O      408.123    -890.280     303.327
  H      410.937    -895.660     309.514
  H      407.732    -889.640     303.956
  H      411.840    -893.030     313.635
  H      410.907    -891.070     307.569
  H      412.311    -894.200     307.559
  H      409.338    -894.660     308.166
  H      411.790    -895.370     313.681
  H      409.086    -895.930     306.261
  H      411.589    -896.220     312.184
  H      410.633    -894.290     304.602
  H      408.159    -894.200     304.698
  H      408.210    -893.410     306.283
  P      410.599    -897.940     305.292
  C      410.633    -899.290     307.482
  O      409.832    -898.740     306.450
  O      411.995    -898.690     305.201
  O      409.906    -897.940     303.969
  H      412.185    -898.950     304.267
  H      410.050    -900.000     308.044
  H      410.953    -898.500     308.162
  H      411.512    -899.790     307.063
  H      408.150    -893.235     300.630
  H      409.399    -892.983     301.826
  H      408.646    -891.612     301.046

 3  4  5  6  7  8  9  10  11  12  23  26  30  31 0
 6-311+G(2d,p)
 ****
 33  35  36  37  38 0
 6-311+G(2d,p)
 ****
 1  2  13  14  15  16  17  18  19  20  21  22  24  25 0
 3-21G
 ****
 27  28  29  32  34  39  40  41  42  43  44  45  46  47  48  49 0
 3-21G
 ****


