%nproc=1
%NoSave
%Mem=1900MB
#P OB98/GEN NMR

erre ene a

0 1
  C      204.731      71.045      40.335
  O      205.331      70.098      41.199
  H      205.219      70.987      39.359
  H      204.858      72.056      40.735
  H      203.668      70.818      40.213
  P      204.779      70.046      42.705
  C      204.669      71.819      44.588
  O      205.259      71.432      43.354
  C      205.652      72.642      45.417
  O      206.725      71.808      45.889
  C      206.306      73.791      44.659
  O      205.455      74.927      44.651
  C      207.544      74.032      45.509
  O      207.194      74.829      46.658
  C      207.931      72.612      45.956
  N      212.803      70.991      45.881
  C      212.125      71.752      46.767
  N      210.849      72.191      46.698
  C      210.256      71.754      45.574
  C      210.823      70.973      44.576
  C      212.160      70.580      44.763
  N      212.848      69.805      43.856
  N      209.914      70.725      43.569
  C      208.801      71.298      43.980
  N      208.965      71.965      45.170
  O      205.106      68.810      43.473
  O      203.216      70.302      42.465
  H      206.913      75.700      46.322
  H      203.082      70.985      41.783
  H      212.683      72.053      47.650
  H      207.847      71.243      43.468
  H      208.277      72.594      46.998
  H      208.324      74.573      44.972
  H      206.614      73.491      43.652
  H      205.116      73.014      46.301
  H      204.358      70.933      45.155
  H      213.847      69.733      43.975
  H      212.405      69.611      42.968
  H      203.777      72.412      44.358
  P      205.154      75.725      43.291
  C      206.564      77.146      41.677
  O      206.548      76.412      42.896
  O      203.977      76.635      43.356
  O      204.993      74.580      42.188
  H      204.552      74.939      41.394
  H      207.540      77.555      41.520
  H      205.848      77.940      41.729
  H      206.316      76.495      40.865

 6  7  8  9  10  11  12  13  14  15  25  28  32  33  34  35 0
 6-311+G(2d,p)
 ****
 36  39  40 0
 6-311+G(2d,p)
 ****
 1  2  3  4  5  16  17  18  19  20  21  22  23  24 0
 3-21G
 ****
 26  27  29  30  31  37  38  41  42  43  44  45  46  47 0
 3-21G
 ****
 48 0
 3-21G
 ****


