%nproc=1
%NoSave
%Mem=1900MB
#P OB98/GEN NMR

erre ene a

0 1
  C      -38.537    -452.375     430.623
  O      -39.371    -451.233     430.408
  P      -39.198    -450.465     429.003
  C      -39.584    -451.173     426.524
  O      -39.960    -451.332     427.888
  C      -40.321    -452.170     425.634
  O      -40.053    -453.529     426.048
  C      -41.842    -452.043     425.673
  O      -42.298    -450.976     424.850
  C      -42.263    -453.386     425.103
  O      -42.219    -453.350     423.668
  C      -41.183    -454.337     425.654
  N      -41.942    -458.988     427.538
  C      -41.476    -458.602     426.295
  N      -41.136    -459.597     425.445
  N      -41.347    -457.352     425.923
  C      -41.699    -456.466     426.888
  C      -42.178    -456.722     428.154
  C      -42.338    -458.112     428.547
  O      -42.777    -458.507     429.618
  N      -42.412    -455.561     428.850
  C      -42.049    -454.603     428.013
  N      -41.624    -455.101     426.809
  O      -37.653    -450.698     428.659
  O      -39.550    -449.019     429.058
  H      -42.871    -452.678     423.373
  H      -37.324    -449.972     428.095
  H      -42.023    -459.963     427.769
  H      -42.076    -453.544     428.238
  H      -40.839    -455.042     424.890
  H      -43.291    -453.660     425.378
  H      -41.141    -460.576     425.693
  H      -42.200    -451.948     426.707
  H      -40.756    -459.326     424.542
  H      -39.962    -452.044     424.605
  H      -38.506    -451.319     426.422
  H      -39.796    -450.141     426.218
  P      -42.539    -449.554     425.556
  C      -40.941    -447.578     426.088
  O      -41.208    -448.706     425.278
  O      -42.459    -449.906     427.118
  O      -43.832    -448.896     425.189
  H      -43.009    -449.281     427.631
  H      -41.146    -447.787     427.144
  H      -41.559    -446.733     425.753
  H      -39.887    -447.310     425.986
  H      -38.746    -452.793     431.585
  H      -37.510    -452.080     430.578
  H      -38.732    -453.106     429.866

 3  4  5  6  7  8  9  10  11  12  23  26  30  31  33  0
 6-311+G(2d,p)
 ****
 35  36  37  38 0
 6-311+G(2d,p)
 ****
 1  2  13  14  15  16  17  18  19  20  21  22  24  25  27  28  29 0
 3-21G
 ****
 32  34  39  40  41  42  43  44  45  46  47  48  49 0
 3-21G
 ****


