%nproc=1
%NoSave
%Mem=1900MB
#P OB98/GEN NMR

erre ene a

0 1
  C      286.432    -357.869    -172.358
  O      287.056    -358.881    -171.591
  H      286.586    -356.892    -171.890
  H      286.881    -357.854    -173.354
  H      285.362    -358.073    -172.453
  P      286.534    -359.078    -170.086
  C      286.529    -357.485    -168.028
  O      287.166    -357.864    -169.244
  C      287.509    -356.706    -167.161
  O      288.451    -357.606    -166.532
  C      288.354    -355.687    -167.924
  O      287.657    -354.480    -168.161
  C      289.495    -355.485    -166.941
  O      289.065    -354.627    -165.871
  C      289.721    -356.909    -166.426
  N      294.669    -358.205    -166.619
  C      293.973    -357.435    -165.755
  N      292.659    -357.137    -165.776
  C      292.053    -357.723    -166.825
  C      292.634    -358.523    -167.792
  C      294.013    -358.769    -167.659
  N      294.732    -359.541    -168.546
  N      291.700    -358.911    -168.735
  C      290.569    -358.380    -168.316
  N      290.729    -357.643    -167.173
  O      287.357    -360.349    -169.565
  O      285.061    -359.246    -169.928
  H      289.804    -354.586    -165.232
  H      286.902    -360.752    -168.802
  H      294.549    -357.005    -164.940
  H      289.610    -358.500    -168.804
  H      290.020    -356.933    -165.369
  H      290.369    -355.016    -167.397
  H      288.754    -356.114    -168.854
  H      286.936    -356.213    -166.360
  H      286.210    -358.386    -167.498
  H      295.738    -359.499    -168.469
  H      294.283    -359.836    -169.402
  H      285.650    -356.874    -168.260
  P      287.801    -353.820    -169.619
  C      289.824    -352.932    -170.990
  O      289.313    -353.297    -169.712
  O      286.947    -352.474    -169.488
  O      287.339    -354.681    -170.744
  H      286.608    -352.192    -170.362
  H      290.838    -352.606    -170.889
  H      289.233    -352.138    -171.397
  H      289.785    -353.778    -171.645

 6  7  8  9  10  11  12  13  14  15  25  28  32  33  34  35 0
 6-311+G(2d,p)
 ****
 36  39  40 0
 6-311+G(2d,p)
 ****
 1  2  3  4  5  16  17  18  19  20  21  22  23  24 0
 3-21G
 ****
 26  27  29  30  31  37  38  41  42  43  44  45  46  47 0
 3-21G
 ****
 48 0
 3-21G
 ****


