%nproc=1
%NoSave
%Mem=1900MB
#P OB98/GEN NMR

erre ene a

0 1
  C     -162.737    -155.166     158.311
  O     -163.512    -155.607     157.191
  P     -162.786    -155.646     155.758
  C     -160.754    -157.046     154.877
  O     -161.832    -156.933     155.797
  C     -160.173    -158.457     154.919
  O     -159.803    -158.816     156.274
  C     -161.139    -159.539     154.466
  O     -161.292    -159.541     153.054
  C     -160.464    -160.785     155.034
  O     -159.389    -161.208     154.179
  C     -159.895    -160.257     156.368
  N     -160.683    -160.666     157.526
  C     -160.128    -161.678     158.307
  O     -159.055    -162.223     158.045
  N     -160.861    -162.058     159.400
  C     -162.080    -161.558     159.759
  O     -162.685    -161.932     160.755
  C     -162.635    -160.528     158.870
  C     -161.926    -160.134     157.808
  O     -161.790    -154.402     155.885
  O     -163.745    -155.580     154.616
  H     -161.439    -154.287     156.783
  H     -159.063    -162.057     154.545
  H     -160.472    -162.781     159.985
  H     -163.614    -160.127     159.108
  H     -162.318    -159.375     157.136
  H     -158.869    -160.618     156.510
  H     -161.155    -161.629     155.133
  H     -162.118    -159.397     154.947
  H     -159.266    -158.471     154.299
  H     -159.970    -156.325     155.130
  H     -161.120    -156.798     153.874
  P     -162.596    -158.798     152.469
  C     -163.137    -156.330     151.798
  O     -162.228    -157.241     152.382
  O     -163.593    -158.896     153.715
  O     -163.116    -159.411     151.210
  H     -163.167    -158.688     154.561
  H     -162.883    -155.319     152.137
  H     -164.166    -156.547     152.083
  H     -163.040    -156.367     150.708
  H     -163.341    -155.190     159.194
  H     -162.397    -154.166     158.138
  H     -161.894    -155.812     158.438

 3  4  5  6  7  8  9  10  11  12  13  24  28  29  30  31  32 0
 6-311+G(2d,p)
 ****
 33  34 0
 6-311+G(2d,p)
 ****
 1  2  14  15  16  17  18  19  20  21  22  23  25  26  27 0
 3-21G
 ****
 35  36  37  38  39  40  41  42  43  44  45 0
 3-21G
 ****


