%nproc=1
%NoSave
%Mem=1900MB
#P OB98/GEN NMR

erre ene a

0 1
  C     -316.051     195.525      -5.070
  O     -315.326     194.469      -4.473
  H     -316.705     195.964      -4.316
  H     -316.659     195.139      -5.888
  H     -315.374     196.299      -5.447
  P     -314.064     193.861      -5.246
  C     -313.873     191.300      -4.929
  O     -313.567     192.586      -4.406
  C     -314.049     190.277      -3.800
  O     -312.866     190.307      -2.952
  C     -315.244     190.628      -2.909
  O     -315.811     189.465      -2.296
  C     -314.619     191.487      -1.830
  O     -315.383     191.522      -0.618
  C     -313.245     190.836      -1.674
  N     -310.467     192.462       2.290
  C     -311.557     191.616       2.273
  N     -311.969     191.145       3.484
  N     -312.211     191.291       1.193
  C     -311.740     191.900       0.073
  C     -310.676     192.768      -0.044
  C     -309.947     193.092       1.165
  O     -308.981     193.853       1.234
  N     -310.506     193.182      -1.339
  C     -311.463     192.570      -2.008
  N     -312.219     191.764      -1.202
  O     -312.903     194.929      -4.973
  O     -314.259     193.621      -6.713
  H     -315.367     190.624      -0.232
  H     -312.211     194.862      -5.659
  H     -309.982     192.660       3.150
  H     -311.635     192.662      -3.076
  H     -313.290     190.003      -0.963
  H     -314.569     192.516      -2.195
  H     -311.617     191.528       4.346
  H     -316.028     191.164      -3.438
  H     -312.928     190.796       3.528
  H     -314.113     189.263      -4.216
  H     -313.045     191.019      -5.591
  H     -314.782     191.349      -5.549
  P     -317.216     188.921      -2.849
  C     -317.665     187.885      -0.453
  O     -317.799     187.809      -1.858
  O     -316.818     188.089      -4.155
  O     -318.222     189.997      -3.150
  H     -317.200     188.510      -4.957
  H     -318.131     187.033      -0.004
  H     -318.135     188.778      -0.098
  H     -316.627     187.901      -0.194

 6  7  8  9  10  11  12  13  14  15  26  29  33  34 0
 6-311+G(2d,p)
 ****
 36  38  39  40  41 0
 6-311+G(2d,p)
 ****
 1  2  3  4  5  16  17  18  19  20  21  22  23  24  25 0
 3-21G
 ****
 27  28  30  31  32  35  37  42  43  44  45  46  47 0
 3-21G
 ****
 48  49 0
 3-21G
 ****


