%nproc=1
%NoSave
%Mem=1900MB
#P OB98/GEN NMR

erre ene a

0 1
  C      -41.884    -160.653     228.209
  O      -40.497    -160.367     228.133
  P      -39.466    -161.442     227.556
  C      -39.245    -162.979     229.676
  O      -39.677    -162.813     228.339
  C      -38.995    -164.471     229.938
  O      -40.137    -165.247     229.519
  C      -37.773    -164.975     229.173
  O      -36.615    -164.932     229.995
  C      -38.184    -166.384     228.784
  O      -37.976    -167.290     229.882
  C      -39.696    -166.204     228.514
  N      -40.113    -165.691     227.187
  C      -39.670    -166.334     226.033
  O      -38.970    -167.343     226.038
  N      -40.050    -165.751     224.850
  C      -40.843    -164.650     224.719
  O      -40.975    -164.002     223.686
  C      -41.490    -164.185     225.953
  C      -41.081    -164.701     227.112
  O      -38.059    -160.919     228.100
  O      -39.469    -161.602     226.072
  H      -37.017    -167.441     229.958
  H      -37.584    -160.415     227.409
  H      -39.621    -166.134     224.015
  H      -42.234    -163.401     225.878
  H      -41.523    -164.349     228.045
  H      -40.240    -167.139     228.681
  H      -37.576    -166.760     227.962
  H      -37.627    -164.387     228.253
  H      -38.858    -164.623     231.017
  H      -40.003    -162.594     230.368
  H      -38.328    -162.404     229.849
  P      -35.385    -163.994     229.581
  C      -34.004    -165.990     228.767
  O      -34.634    -164.781     228.405
  O      -34.522    -163.531     230.704
  O      -36.102    -162.765     228.840
  H      -36.201    -162.012     229.460
  H      -33.689    -166.515     227.862
  H      -34.698    -166.634     229.325
  H      -33.121    -165.786     229.382
  H      -42.400    -159.811     228.621
  H      -42.038    -161.507     228.835
  H      -42.260    -160.857     227.228

 3  4  5  6  7  8  9  10  11  12  13  23  28  29  30  31  32 0
 6-311+G(2d,p)
 ****
 33  34 0
 6-311+G(2d,p)
 ****
 1  2  14  15  16  17  18  19  20  21  22  24  25  26  27 0
 3-21G
 ****
 35  36  37  38  39  40  41  42  43  44  45 0
 3-21G
 ****


