%nproc=1
%NoSave
%Mem=1900MB
#P OB98/GEN NMR

erre ene a

0 1
  C       66.046     104.173      68.212
  O       65.837     105.142      67.176
  P       66.497     105.034      65.716
  C       64.218     104.798      64.509
  O       65.490     104.212      64.773
  C       63.964     104.886      63.002
  O       63.674     103.572      62.465
  C       62.766     105.728      62.592
  O       63.007     107.115      62.731
  C       62.557     105.268      61.150
  O       63.410     105.982      60.246
  C       62.978     103.788      61.214
  N       61.858     102.870      61.075
  C       61.733     102.214      59.847
  O       62.497     102.480      58.918
  N       60.734     101.285      59.699
  C       59.872     101.107      60.651
  N       58.915     100.159      60.455
  C       59.889     101.879      61.909
  C       60.899     102.732      62.053
  O       67.890     104.493      65.721
  O       66.457     106.520      65.122
  H       67.173     106.629      64.468
  H       64.331     105.774      60.502
  H       59.126     101.727      62.659
  H       60.996     103.330      62.953
  H       63.717     103.571      60.433
  H       61.527     105.425      60.814
  H       61.897     105.438      63.196
  H       64.879     105.263      62.522
  H       58.938      99.640      59.587
  H       64.211     105.810      64.928
  H       58.212      99.926      61.142
  H       63.441     104.209      65.004
  P       62.338     107.847      63.991
  C       64.532     108.856      64.946
  O       63.454     107.962      65.137
  O       61.314     106.756      64.562
  O       61.640     109.128      63.666
  H       60.495     107.197      64.858
  H       64.893     109.180      65.924
  H       64.233     109.734      64.368
  H       65.340     108.337      64.425
  H       65.504     104.464      69.087
  H       67.090     104.116      68.442
  H       65.701     103.216      67.880

 3  4  5  6  7  8  9  10  11  12  13  24  27  28  29  30  32 0
 6-311+G(2d,p)
 ****
 34  35 0
 6-311+G(2d,p)
 ****
 1  2  14  15  16  17  18  19  20  21  22  23  25  26 0
 3-21G
 ****
 31  33  36  37  38  39  40  41  42  43  44  45  46 0
 3-21G
 ****


