%nproc=1
%NoSave
%Mem=1900MB
#P OB98/GEN NMR

erre ene a

0 1
  C      352.013     108.790    -279.669
  O      352.408     108.708    -278.312
  P      351.478     107.960    -277.217
  C      351.428     109.816    -275.396
  O      350.720     109.155    -276.448
  C      350.517     110.824    -274.728
  O      350.304     111.955    -275.609
  C      349.127     110.309    -274.355
  O      349.168     109.476    -273.214
  C      348.366     111.619    -274.205
  O      348.623     112.206    -272.927
  C      348.983     112.495    -275.314
  N      348.155     112.541    -276.525
  C      346.928     113.212    -276.410
  O      346.567     113.715    -275.350
  N      346.124     113.307    -277.534
  C      346.519     112.769    -278.644
  N      345.710     112.960    -279.733
  C      347.770     112.008    -278.798
  C      348.541     111.940    -277.708
  O      352.201     107.013    -276.339
  O      350.308     107.306    -278.081
  H      348.177     113.078    -272.921
  H      350.513     106.390    -278.407
  H      348.033     111.582    -279.750
  H      349.480     111.430    -277.743
  H      349.136     113.506    -274.950
  H      347.276     111.491    -274.311
  H      348.719     109.731    -275.194
  H      351.016     111.206    -273.818
  H      344.946     113.623    -279.624
  H      352.296     110.337    -275.831
  H      346.056     112.832    -280.676
  H      351.794     109.055    -274.684
  P      347.855     108.630    -272.849
  C      347.705     109.819    -270.538
  O      347.066     109.510    -271.756
  O      348.438     107.397    -272.031
  O      347.057     108.194    -274.032
  H      348.484     106.610    -272.585
  H      347.141     110.585    -270.020
  H      348.738     110.180    -270.723
  H      347.728     108.909    -269.908
  H      352.758     109.319    -280.226
  H      351.080     109.309    -279.738
  H      351.902     107.804    -280.069

 3  4  5  6  7  8  9  10  11  12  13  23  27  28  29  30  32 0
 6-311+G(2d,p)
 ****
 34  35 0
 6-311+G(2d,p)
 ****
 1  2  14  15  16  17  18  19  20  21  22  24  25  26 0
 3-21G
 ****
 31  33  36  37  38  39  40  41  42  43  44  45  46 0
 3-21G
 ****


