%nproc=1
%NoSave
%Mem=1900MB
#P OB98/GEN NMR

erre ene a

0 1
  C      -34.954      96.231      30.338
  O      -34.951      95.745      31.682
  P      -35.366      94.209      31.894
  C      -37.766      95.013      32.452
  O      -36.959      94.083      31.744
  C      -39.209      94.515      32.605
  O      -39.972      94.755      31.392
  C      -39.310      93.020      32.915
  O      -40.446      92.833      33.763
  C      -39.609      92.409      31.559
  O      -40.201      91.119      31.693
  C      -40.517      93.492      30.955
  N      -40.608      93.419      29.498
  C      -41.693      92.721      28.964
  O      -42.486      92.140      29.708
  N      -41.836      92.659      27.600
  C      -40.940      93.201      26.836
  N      -41.135      93.104      25.492
  C      -39.747      93.897      27.355
  C      -39.650      93.969      28.681
  O      -35.112      93.970      33.457
  O      -34.573      93.254      31.061
  H      -40.227      90.702      30.805
  H      -34.583      93.161      33.588
  H      -39.016      94.316      26.679
  H      -38.813      94.461      29.155
  H      -41.534      93.411      31.359
  H      -38.686      92.311      30.975
  H      -38.417      92.613      33.398
  H      -39.684      95.090      33.409
  H      -41.969      92.625      25.175
  H      -37.774      95.971      31.928
  H      -40.503      93.487      24.806
  H      -37.312      95.205      33.430
  P      -40.390      93.425      35.251
  C      -39.888      91.159      36.351
  O      -39.394      92.448      36.043
  O      -41.813      92.964      35.834
  O      -40.179      94.891      35.427
  H      -41.936      93.331      36.729
  H      -39.075      90.563      36.773
  H      -40.255      90.663      35.446
  H      -40.690      91.232      37.092
  H      -34.662      97.260      30.330
  H      -35.937      96.136      29.927
  H      -34.265      95.660      29.751

 3  4  5  6  7  8  9  10  11  12  13  21  23  27  28  29  30  32 0
 6-311+G(2d,p)
 ****
 34  35 0
 6-311+G(2d,p)
 ****
 1  2  14  15  16  17  18  19  20  22  24  25  26 0
 3-21G
 ****
 31  33  36  37  38  39  40  41  42  43  44  45  46 0
 3-21G
 ****


