%nproc=1
%NoSave
%Mem=1900MB
#P OB98/GEN NMR

erre ene a

0 1
  C      144.699    -370.773     154.190
  O      143.552    -371.347     153.560
  P      143.429    -371.311     151.962
  C      141.724    -369.387     151.765
  O      143.053    -369.811     151.503
  C      141.555    -367.868     151.654
  O      140.178    -367.478     151.870
  C      142.419    -367.061     152.633
  O      142.826    -365.858     151.956
  C      141.430    -366.735     153.740
  O      141.865    -365.651     154.559
  C      140.163    -366.479     152.912
  N      138.943    -366.551     153.722
  C      138.486    -365.353     154.285
  O      139.166    -364.328     154.182
  N      137.305    -365.373     154.971
  C      136.718    -366.504     155.205
  N      135.526    -366.480     155.868
  C      137.261    -367.805     154.765
  C      138.356    -367.745     154.016
  O      142.578    -372.380     151.358
  O      144.952    -371.451     151.489
  H      141.308    -365.626     155.365
  H      144.975    -371.962     150.654
  H      136.778    -368.727     155.061
  H      138.836    -368.642     153.648
  H      140.204    -365.493     152.425
  H      141.299    -367.614     154.388
  H      143.310    -367.598     152.977
  H      141.816    -367.586     150.621
  H      135.171    -365.577     156.183
  H      141.438    -369.700     152.777
  H      134.978    -367.315     156.049
  H      141.043    -369.917     151.087
  P      144.040    -365.937     150.908
  C      145.856    -364.941     152.486
  O      145.411    -366.057     151.747
  O      144.117    -364.422     150.380
  O      143.870    -366.866     149.757
  H      144.523    -364.417     149.493
  H      146.617    -365.270     153.209
  H      145.042    -364.459     153.034
  H      146.308    -364.200     151.809
  H      144.617    -370.885     155.251
  H      144.758    -369.733     153.944
  H      145.581    -371.271     153.846

 3  4  5  6  7  8  9  10  11  12  13  23  27  28  29  30  32 0
 6-311+G(2d,p)
 ****
 34  35 0
 6-311+G(2d,p)
 ****
 1  2  14  15  16  17  18  19  20  21  22  24  25  26 0
 3-21G
 ****
 31  33  36  37  38  39  40  41  42  43  44  45  46 0
 3-21G
 ****


