%nproc=1
%NoSave
%Mem=1900MB
#P OB98/GEN NMR

erre ene a

0 1
  C      673.617    -890.240     129.848
  O      672.909    -890.750     130.982
  P      671.638    -889.960     131.522
  C      669.239    -890.600     132.268
  O      670.586    -891.050     132.085
  C      668.369    -891.770     132.776
  O      668.198    -892.750     131.697
  C      668.935    -892.530     133.945
  O      668.742    -891.800     135.138
  C      668.153    -893.840     133.838
  O      666.836    -893.680     134.438
  C      668.029    -894.020     132.328
  N      669.208    -898.980     132.113
  C      668.280    -898.300     132.810
  N      668.073    -896.970     132.848
  C      668.938    -896.330     132.067
  C      669.948    -896.870     131.299
  C      670.062    -898.270     131.306
  N      670.959    -898.990     130.517
  N      670.658    -895.880     130.626
  C      670.071    -894.770     130.987
  N      668.996    -894.980     131.796
  O      671.051    -888.950     130.591
  O      672.169    -889.240     132.871
  H      666.404    -892.910     134.030
  H      672.082    -888.290     132.792
  H      667.632    -898.920     133.428
  H      670.357    -893.750     130.698
  H      667.007    -894.380     132.029
  H      668.635    -894.650     134.350
  H      670.008    -892.760     133.767
  H      667.359    -891.360     132.979
  H      668.872    -890.200     131.322
  H      670.864    -900.000     130.517
  H      671.398    -898.500     129.751
  H      669.243    -889.790     133.020
  P      669.664    -892.120     136.428
  C      671.021    -890.740     138.103
  O      670.091    -890.700     137.054
  O      670.799    -893.050     136.182
  O      668.643    -892.690     137.503
  H      669.081    -893.330     138.073
  H      670.500    -891.040     139.048
  H      671.434    -889.750     138.240
  H      671.829    -891.450     137.902
  H      674.438    -890.887     129.619
  H      673.986    -889.260     130.069
  H      672.957    -890.191     129.008

 3  4  5  6  7  8  9  10  11  12  22  25  29  30  31  32 0
 6-311+G(2d,p)
 ****
 33  36  37 0
 6-311+G(2d,p)
 ****
 1  2  13  14  15  16  17  18  19  20  21  23  24  26 0
 3-21G
 ****
 27  28  34  35  38  39  40  41  42  43  44  45  46  47  48 0
 3-21G
 ****


