%nproc=1
%NoSave
%Mem=1900MB
#P OB98/GEN NMR

erre ene a

0 1
  C     -276.107     477.573      21.097
  O     -275.881     478.046      22.407
  H     -275.206     477.092      20.704
  H     -276.916     476.837      21.122
  H     -276.404     478.399      20.443
  P     -274.654     479.063      22.596
  C     -273.013     477.427      23.760
  O     -273.318     478.171      22.590
  C     -271.536     477.574      24.109
  O     -270.718     477.157      22.998
  C     -271.098     479.001      24.419
  O     -271.456     479.394      25.741
  C     -269.587     478.869      24.263
  O     -269.023     478.297      25.459
  C     -269.460     477.879      23.097
  N     -266.436     477.888      18.946
  C     -266.445     477.110      20.052
  N     -267.268     477.173      21.118
  C     -268.175     478.155      20.968
  C     -268.287     479.022      19.894
  C     -267.362     478.868      18.846
  N     -267.352     479.678      17.728
  N     -269.345     479.888      20.077
  C     -269.863     479.550      21.243
  N     -269.183     478.509      21.819
  O     -274.781     479.523      24.129
  O     -274.646     480.235      21.673
  H     -268.106     478.631      25.519
  H     -274.512     480.457      24.200
  H     -265.687     476.332      20.084
  H     -270.725     480.024      21.697
  H     -268.678     477.133      23.282
  H     -269.087     479.825      24.094
  H     -271.478     479.707      23.673
  H     -271.320     476.908      24.954
  H     -273.235     476.368      23.587
  H     -266.800     479.395      16.937
  H     -268.055     480.408      17.665
  H     -273.637     477.790      24.582
  P     -271.465     480.964      26.065
  C     -269.275     481.023      27.451
  O     -269.928     481.383      26.240
  O     -272.038     481.021      27.562
  O     -272.275     481.794      25.130
  H     -272.457     481.888      27.724
  H     -268.262     481.366      27.425
  H     -269.289     479.959      27.561
  H     -269.783     481.473      28.278

 6  7  8  9  10  11  12  13  14  15  25  28  32  33  34  35 0
 6-311+G(2d,p)
 ****
 36  39  40 0
 6-311+G(2d,p)
 ****
 1  2  3  4  5  16  17  18  19  20  21  22  23  24 0
 3-21G
 ****
 26  27  29  30  31  37  38  41  42  43  44  45  46  47  48 0
 3-21G
 ****


