%nproc=1
%NoSave
%Mem=1900MB
#P OB98/GEN NMR

erre ene a

0 1
  C       98.196     -53.595      68.993
  O       97.084     -52.784      68.689
  P       96.990     -51.282      69.243
  C       95.402     -50.970      71.242
  O       96.692     -51.401      70.815
  C       94.353     -52.024      70.893
  O       94.783     -53.348      71.306
  C       93.017     -51.829      71.594
  O       92.264     -50.686      71.252
  C       92.363     -53.182      71.369
  O       91.782     -53.271      70.070
  C       93.580     -54.135      71.487
  N       93.586     -54.856      72.758
  C       93.522     -56.243      72.674
  O       93.459     -56.858      71.610
  N       93.497     -56.913      73.865
  C       93.483     -56.343      75.107
  O       93.418     -57.007      76.134
  C       93.540     -54.877      75.133
  C       93.587     -54.207      73.977
  O       96.057     -50.387      68.498
  O       98.516     -50.792      69.225
  H       91.283     -52.446      69.913
  H       99.121     -51.319      69.777
  H       93.436     -57.918      73.827
  H       93.544     -54.392      76.100
  H       93.626     -53.121      73.971
  H       93.565     -54.872      70.673
  H       91.563     -53.373      72.095
  H       93.209     -51.741      72.673
  H       94.239     -52.046      69.805
  H       95.151     -50.035      70.733
  H       95.424     -50.770      72.320
  P       90.876     -50.299      71.951
  C       88.947     -50.779      70.289
  O       89.731     -51.253      71.362
  O       90.567     -48.843      72.072
  O       91.083     -50.910      73.426
  H       90.593     -50.362      74.067
  H       88.192     -51.535      70.045
  H       89.569     -50.611      69.406
  H       88.434     -49.854      70.567
  H       98.073     -54.554      68.535
  H       98.272     -53.713      70.054
  H       99.087     -53.133      68.621

 3  4  5  6  7  8  9  10  11  12  13  23  28  29  30  31  32 0
 6-311+G(2d,p)
 ****
 33  34 0
 6-311+G(2d,p)
 ****
 1  2  14  15  16  17  18  19  20  21  22  24  25  26  27 0
 3-21G
 ****
 35  36  37  38  39  40  41  42  43  44  45 0
 3-21G
 ****


