%nproc=1
%NoSave
%Mem=1900MB
#P OB98/GEN NMR

erre ene a

0 1
  C       94.201    -221.440    -294.901
  O       95.514    -221.804    -294.489
  P       96.067    -223.249    -294.910
  C       95.364    -224.476    -292.737
  O       95.174    -224.338    -294.138
  C       95.369    -225.949    -292.328
  O       94.020    -226.476    -292.437
  C       96.279    -226.846    -293.174
  O       96.786    -227.874    -292.314
  C       95.317    -227.463    -294.170
  O       95.827    -228.664    -294.743
  C       94.085    -227.643    -293.286
  N       90.836    -230.923    -295.494
  C       91.955    -231.117    -294.762
  N       92.767    -230.193    -294.207
  C       92.325    -228.954    -294.472
  C       91.222    -228.597    -295.230
  C       90.449    -229.646    -295.756
  N       89.305    -229.450    -296.488
  N       91.106    -227.222    -295.301
  C       92.120    -226.758    -294.600
  N       92.867    -227.767    -294.059
  O       97.477    -223.319    -294.157
  O       96.224    -223.468    -296.378
  H       96.679    -228.460    -295.172
  H       98.205    -223.295    -294.808
  H       92.231    -232.158    -294.595
  H       92.353    -225.712    -294.454
  H       94.166    -228.527    -292.640
  H       95.120    -226.757    -294.986
  H       97.105    -226.314    -293.659
  H       95.652    -226.010    -291.266
  H       94.547    -223.972    -292.219
  H       88.736    -230.249    -296.713
  H       88.907    -228.517    -296.530
  H       96.307    -224.000    -292.447
  P       98.380    -228.030    -292.227
  C       98.635    -229.941    -293.964
  O       98.865    -228.582    -293.651
  O       98.575    -229.280    -291.248
  O       99.086    -226.813    -291.723
  H       99.431    -229.208    -290.783
  H       98.452    -230.033    -295.036
  H       97.772    -230.343    -293.421
  H       99.525    -230.522    -293.702
  H       93.976    -220.456    -294.547
  H       93.495    -222.134    -294.496
  H       94.145    -221.456    -295.969

 3  4  5  6  7  8  9  10  11  12  22  25  29  30  31  32 0
 6-311+G(2d,p)
 ****
 33  36  37 0
 6-311+G(2d,p)
 ****
 1  2  13  14  15  16  17  18  19  20  21  23  24  26 0
 3-21G
 ****
 27  28  34  35  38  39  40  41  42  43  44  45  46  47  48 0
 3-21G
 ****


