%nproc=1
%NoSave
%Mem=1900MB
#P OB98/GEN NMR

erre ene a

0 1
  C      585.239     -12.355      97.422
  O      584.685     -13.139      98.491
  P      583.083     -13.215      98.591
  C      582.897     -15.815      98.303
  O      582.759     -14.681      99.155
  C      583.298     -17.044      99.120
  O      584.687     -16.955      99.526
  C      582.514     -17.208     100.412
  O      581.194     -17.683     100.166
  C      583.402     -18.183     101.172
  O      583.169     -19.528     100.719
  C      584.814     -17.710     100.756
  N      585.492     -16.939     101.792
  C      586.047     -17.678     102.835
  O      585.967     -18.898     102.912
  N      586.703     -16.954     103.795
  C      586.807     -15.594     103.832
  O      587.395     -14.997     104.728
  C      586.149     -14.861     102.746
  C      585.526     -15.559     101.780
  O      582.677     -13.289      97.044
  O      582.491     -12.073      99.354
  H      583.320     -13.779      96.509
  H      582.339     -19.817     101.155
  H      587.117     -17.470     104.558
  H      586.186     -13.788     102.753
  H      585.044     -15.043     100.961
  H      585.447     -18.578     100.506
  H      583.216     -18.166     102.257
  H      582.459     -16.251     100.946
  H      583.179     -17.931      98.490
  H      583.667     -15.627      97.548
  H      581.953     -15.980      97.784
  P      580.153     -17.591     101.381
  C      578.411     -16.334      99.886
  O      578.694     -17.431     100.733
  O      580.474     -16.145     101.980
  O      580.287     -18.716     102.364
  H      580.586     -15.463     101.288
  H      577.534     -16.563      99.282
  H      579.255     -16.106      99.227
  H      578.187     -15.460     100.497
  H      586.307     -12.389      97.471
  H      584.910     -11.341      97.516
  H      584.912     -12.751      96.483

 3  4  5  6  7  8  9  10  11  12  13  24  28  29  30  31  32 0
 6-311+G(2d,p)
 ****
 33  34 0
 6-311+G(2d,p)
 ****
 1  2  14  15  16  17  18  19  20  21  22  23  25  26  27 0
 3-21G
 ****
 35  36  37  38  39  40  41  42  43  44  45 0
 3-21G
 ****


