%nproc=1
%NoSave
%Mem=1900MB
#P OB98/GEN NMR

erre ene a

0 1
  C      189.255    -150.601     112.522
  O      189.943    -151.037     111.345
  P      190.877    -152.341     111.336
  C      192.922    -151.066     112.240
  O      192.029    -152.159     112.437
  C      193.487    -150.551     113.568
  O      194.262    -151.573     114.225
  C      194.407    -149.341     113.439
  O      193.651    -148.156     113.264
  C      195.190    -149.420     114.746
  O      194.424    -148.859     115.826
  C      195.344    -150.936     114.931
  N      200.421    -150.561     115.424
  C      199.403    -149.948     116.066
  N      198.076    -150.097     115.873
  C      197.836    -151.010     114.918
  C      198.770    -151.714     114.174
  C      200.124    -151.460     114.457
  N      201.158    -152.075     113.790
  N      198.148    -152.543     113.268
  C      196.858    -152.358     113.473
  N      196.620    -151.441     114.459
  O      191.378    -152.728     109.983
  O      189.958    -153.502     111.950
  H      193.597    -149.369     115.891
  H      190.240    -154.365     111.596
  H      199.695    -149.239     116.838
  H      196.064    -152.864     112.938
  H      195.245    -151.226     115.983
  H      196.140    -148.880     114.703
  H      195.092    -149.481     112.596
  H      192.638    -150.315     114.224
  H      192.375    -150.260     111.738
  H      202.101    -151.814     114.029
  H      200.944    -152.713     113.036
  H      193.740    -151.395     111.591
  P      193.634    -147.415     111.845
  C      195.677    -145.980     112.432
  O      195.133    -146.939     111.543
  O      192.587    -146.368     111.679
  O      193.428    -148.612     110.799
  H      192.954    -148.274     110.015
  H      195.308    -144.987     112.167
  H      196.767    -145.993     112.336
  H      195.410    -146.210     113.467
  H      188.695    -149.717     112.301
  H      189.966    -150.389     113.293
  H      188.590    -151.371     112.852

 3  4  5  6  7  8  9  10  11  12  22  25  29  30  31  32 0
 6-311+G(2d,p)
 ****
 33  36  37 0
 6-311+G(2d,p)
 ****
 1  2  13  14  15  16  17  18  19  20  21  23  24  26 0
 3-21G
 ****
 27  28  34  35  38  39  40  41  42  43  44  45  46  47  48 0
 3-21G
 ****


