%nproc=1
%NoSave
%Mem=1900MB
#P OB98/GEN NMR

erre ene a

0 1
  C      334.325    -115.560      39.853
  O      334.972    -115.772      38.613
  H      333.245    -115.643      39.701
  H      334.553    -114.555      40.218
  H      334.639    -116.308      40.588
  P      336.560    -116.024      38.659
  C      338.631    -114.547      39.185
  O      337.217    -114.675      39.236
  C      339.134    -113.738      40.377
  O      338.629    -114.289      41.611
  C      340.654    -113.698      40.515
  O      341.229    -112.696      39.682
  C      340.793    -113.332      41.985
  O      340.536    -111.920      42.161
  C      339.665    -114.153      42.626
  N      341.390    -116.897      46.532
  C      341.165    -115.536      46.435
  N      341.447    -114.802      47.536
  N      340.707    -114.946      45.359
  C      340.495    -115.805      44.330
  C      340.688    -117.170      44.303
  C      341.177    -117.810      45.505
  O      341.383    -119.016      45.642
  N      340.362    -117.698      43.080
  C      339.996    -116.654      42.362
  N      340.061    -115.481      43.077
  O      336.963    -116.007      37.108
  O      336.983    -117.292      39.319
  H      339.934    -111.652      41.445
  H      337.092    -116.927      36.805
  H      341.751    -117.301      47.380
  H      339.667    -116.694      41.333
  H      339.218    -113.644      43.484
  H      341.796    -113.522      42.374
  H      341.821    -115.189      48.388
  H      341.103    -114.685      40.335
  H      341.281    -113.801      47.488
  H      338.727    -112.719      40.284
  H      338.911    -114.040      38.256
  H      339.082    -115.549      39.194
  P      342.827    -112.642      39.556
  C      344.794    -111.870      41.060
  O      343.390    -112.046      40.936
  O      343.053    -111.449      38.509
  O      343.473    -113.906      39.089
  H      343.402    -111.806      37.666
  H      345.019    -111.468      42.026
  H      345.137    -111.195      40.304
  H      345.283    -112.814      40.944

 6  7  8  9  10  11  12  13  14  15  26  29  33  34 0
 6-311+G(2d,p)
 ****
 36  38  39  40  41 0
 6-311+G(2d,p)
 ****
 1  2  3  4  5  16  17  18  19  20  21  22  23  24  25 0
 3-21G
 ****
 27  28  30  31  32  35  37  42  43  44  45  46  47 0
 3-21G
 ****
 48  49 0
 3-21G
 ****


