%nproc=1
%NoSave
%Mem=1900MB
#P OB98/GEN NMR

erre ene a

0 1
  C      -29.629     -37.629     146.958
  O      -29.276     -38.016     148.288
  P      -27.711     -38.209     148.593
  C      -27.890     -37.089     150.924
  O      -27.498     -38.237     150.185
  C      -27.752     -37.310     152.436
  O      -28.693     -38.313     152.902
  C      -26.354     -37.766     152.863
  O      -26.095     -37.205     154.155
  C      -26.513     -39.269     153.008
  O      -25.493     -39.820     153.838
  C      -27.943     -39.347     153.575
  N      -28.556     -40.662     153.402
  C      -28.416     -41.574     154.452
  O      -27.738     -41.284     155.441
  N      -29.009     -42.807     154.347
  C      -29.644     -43.125     153.258
  N      -30.207     -44.363     153.209
  C      -29.765     -42.218     152.098
  C      -29.207     -41.017     152.242
  O      -27.069     -36.811     148.146
  O      -27.094     -39.354     147.851
  H      -25.705     -40.767     153.990
  H      -26.303     -36.966     147.564
  H      -30.285     -42.530     151.206
  H      -29.248     -40.280     151.450
  H      -27.943     -39.118     154.646
  H      -26.462     -39.754     152.024
  H      -25.565     -37.469     152.166
  H      -28.001     -36.369     152.943
  H      -30.108     -44.954     154.029
  H      -28.927     -36.834     150.694
  H      -30.720     -44.712     152.417
  H      -27.289     -36.233     150.597
  P      -25.659     -35.667     154.239
  C      -26.582     -35.458     156.630
  O      -25.430     -35.391     155.806
  O      -27.059     -34.920     153.986
  O      -24.602     -35.171     153.308
  H      -26.913     -33.955     153.945
  H      -26.269     -35.377     157.674
  H      -27.096     -36.416     156.489
  H      -27.255     -34.631     156.399
  H      -30.692     -37.534     146.884
  H      -29.289     -38.373     146.268
  H      -29.170     -36.690     146.726

 3  4  5  6  7  8  9  10  11  12  13  21  23  27  28  29  30  32 0
 6-311+G(2d,p)
 ****
 34  35 0
 6-311+G(2d,p)
 ****
 1  2  14  15  16  17  18  19  20  22  24  25  26 0
 3-21G
 ****
 31  33  36  37  38  39  40  41  42  43  44  45  46 0
 3-21G
 ****


