%nproc=1
%NoSave
%Mem=1900MB
#P OB98/GEN NMR

erre ene a

0 1
  C       -2.264    -424.129    -422.656
  O       -2.125    -424.656    -421.352
  P       -1.784    -423.623    -420.168
  C        0.105    -421.878    -419.785
  O       -0.361    -422.988    -420.546
  C        1.575    -422.051    -419.429
  O        2.385    -421.980    -420.619
  C        2.122    -420.983    -418.500
  O        1.713    -421.225    -417.167
  C        3.622    -421.125    -418.724
  O        4.178    -422.131    -417.866
  C        3.705    -421.553    -420.205
  N        4.214    -420.501    -421.068
  C        5.417    -419.913    -420.659
  O        5.964    -420.281    -419.619
  N        5.946    -418.895    -421.417
  C        5.324    -418.503    -422.483
  N        5.892    -417.496    -423.204
  C        4.045    -419.081    -422.937
  C        3.545    -420.060    -422.183
  O       -1.455    -424.580    -418.931
  O       -2.869    -422.646    -419.858
  H        5.143    -422.122    -418.034
  H       -1.631    -424.131    -418.086
  H        3.562    -418.713    -423.835
  H        2.607    -420.542    -422.445
  H        4.355    -422.429    -420.311
  H        4.156    -420.192    -418.507
  H        1.791    -419.986    -418.823
  H        1.705    -423.052    -418.988
  H        6.769    -417.114    -422.863
  H       -0.478    -421.802    -418.865
  H        5.500    -417.131    -424.058
  H       -0.050    -420.963    -420.369
  P        1.899    -420.042    -416.106
  C        3.913    -418.711    -415.242
  O        3.479    -419.807    -416.019
  O        1.591    -420.785    -414.714
  O        1.050    -418.826    -416.282
  H        1.579    -420.140    -413.986
  H        5.000    -418.756    -415.135
  H        3.461    -418.747    -414.243
  H        3.644    -417.771    -415.735
  H       -2.489    -424.922    -423.339
  H       -1.351    -423.655    -422.948
  H       -3.058    -423.412    -422.668

 3  4  5  6  7  8  9  10  11  12  13  21  23  27  28  29  30  32 0
 6-311+G(2d,p)
 ****
 34  35 0
 6-311+G(2d,p)
 ****
 1  2  14  15  16  17  18  19  20  22  24  25  26 0
 3-21G
 ****
 31  33  36  37  38  39  40  41  42  43  44  45  46 0
 3-21G
 ****


