%nproc=1
%NoSave
%Mem=1900MB
#P OB98/GEN NMR

erre ene a

0 1
  C      168.450    -661.782     485.582
  O      168.544    -661.898     486.983
  H      168.340    -660.727     485.318
  H      167.574    -662.323     485.218
  H      169.351    -662.168     485.098
  P      168.873    -663.348     487.588
  C      171.266    -662.686     488.362
  O      170.474    -663.520     487.521
  C      172.645    -662.474     487.732
  O      172.496    -661.806     486.452
  C      173.585    -661.618     488.597
  O      174.910    -662.154     488.495
  C      173.534    -660.249     487.940
  O      174.697    -659.469     488.195
  C      173.318    -660.631     486.465
  N      172.702    -659.529     485.722
  C      173.536    -658.448     485.391
  O      174.713    -658.451     485.734
  N      173.000    -657.378     484.726
  C      171.715    -657.343     484.498
  N      171.232    -656.231     483.880
  C      170.792    -658.418     484.896
  C      171.346    -659.479     485.491
  O      168.357    -664.352     486.455
  O      168.274    -663.638     488.922
  H      175.492    -660.036     488.032
  H      168.035    -665.187     486.839
  H      169.726    -658.334     484.711
  H      170.748    -660.318     485.815
  H      174.268    -660.886     485.991
  H      172.669    -659.692     488.323
  H      173.289    -661.585     489.654
  H      173.093    -663.457     487.532
  H      171.893    -655.494     483.633
  H      171.394    -663.173     489.341
  H      170.253    -656.072     483.688
  H      170.758    -661.724     488.506
  P      175.469    -662.974     489.758
  C      175.693    -665.148     488.352
  O      175.166    -664.527     489.511
  O      174.455    -662.563     490.927
  O      176.890    -662.645     490.112
  H      174.894    -661.979     491.568
  H      175.402    -666.178     488.335
  H      176.761    -665.079     488.365
  H      175.314    -664.656     487.480

 6  7  8  9  10  11  12  13  14  15  16  26  30  31  32  33  35 0
 6-311+G(2d,p)
 ****
 37  38 0
 6-311+G(2d,p)
 ****
 1  2  3  4  5  17  18  19  20  21  22  23  24  25 0
 3-21G
 ****
 27  28  29  34  36  39  40  41  42  43  44  45  46 0
 3-21G
 ****


