%nproc=1
%NoSave
%Mem=1900MB
#P OB98/GEN NMR

erre ene a

0 1
  C     1005.088    -497.430    1249.220
  O     1004.394    -497.679    1250.418
  H     1005.838    -498.207    1249.068
  H     1005.585    -496.460    1249.249
  H     1004.388    -497.447    1248.367
  P     1003.270    -496.615    1250.836
  C     1003.258    -494.029    1251.110
  O     1004.022    -495.193    1250.808
  C     1004.119    -493.023    1251.871
  O     1005.130    -492.457    1250.993
  C     1003.330    -491.823    1252.416
  O     1002.754    -492.150    1253.675
  C     1004.455    -490.790    1252.584
  O     1005.174    -491.044    1253.810
  C     1005.362    -491.069    1251.368
  N     1005.301    -486.254    1249.618
  C     1005.388    -486.750    1250.875
  N     1005.337    -488.053    1251.290
  C     1005.216    -488.864    1250.226
  C     1005.122    -488.478    1248.872
  C     1005.180    -487.111    1248.598
  N     1005.097    -486.619    1247.312
  N     1004.985    -489.600    1248.067
  C     1005.054    -490.630    1248.911
  N     1005.158    -490.229    1250.216
  O     1002.493    -496.931    1252.087
  O     1002.377    -496.553    1249.487
  H     1006.009    -490.519    1253.756
  H     1002.960    -496.568    1248.702
  H     1005.492    -486.006    1251.673
  H     1005.079    -491.673    1248.589
  H     1006.437    -490.998    1251.648
  H     1004.074    -489.765    1252.650
  H     1002.613    -491.445    1251.689
  H     1004.646    -493.533    1252.681
  H     1002.392    -494.315    1251.719
  H     1004.939    -485.618    1247.204
  H     1004.882    -487.262    1246.572
  H     1002.892    -493.611    1250.167
  P     1001.215    -491.797    1253.996
  C      999.793    -489.668    1253.909
  O     1001.099    -490.215    1253.808
  O     1000.716    -492.334    1255.304
  O     1000.413    -492.382    1252.726
  H      999.448    -492.447    1252.927
  H      999.838    -488.608    1253.767
  H      999.391    -489.881    1254.877
  H      999.166    -490.102    1253.159

 6  7  8  9  10  11  12  13  14  15  25  28  32  33  34  35 0
 6-311+G(2d,p)
 ****
 36  39  40 0
 6-311+G(2d,p)
 ****
 1  2  3  4  5  16  17  18  19  20  21  22  23  24 0
 3-21G
 ****
 26  27  29  30  31  37  38  41  42  43  44  45  46  47 0
 3-21G
 ****
 48 0
 3-21G
 ****


