%nproc=1
%NoSave
%Mem=1900MB
#P OB98/GEN NMR

erre ene a

0 1
  C     -557.031     164.936     481.653
  O     -556.616     166.210     482.097
  H     -556.849     164.864     480.578
  H     -558.097     164.795     481.837
  H     -556.459     164.151     482.157
  P     -556.833     166.598     483.637
  C     -554.427     167.201     484.353
  O     -555.471     166.234     484.403
  C     -553.160     166.646     485.013
  O     -553.402     166.573     486.441
  C     -552.804     165.238     484.511
  O     -551.458     165.138     484.053
  C     -553.239     164.340     485.664
  O     -552.542     163.113     485.742
  C     -553.083     165.243     486.892
  N     -553.931     164.864     488.015
  C     -553.313     164.279     489.118
  O     -552.107     164.067     489.219
  N     -554.147     163.929     490.147
  C     -555.500     164.091     490.179
  O     -556.191     163.758     491.135
  C     -556.099     164.685     488.976
  C     -555.301     165.043     487.964
  O     -558.069     166.054     484.269
  O     -556.827     168.201     483.636
  H     -551.632     163.316     486.037
  H     -557.741     168.529     483.752
  H     -553.709     163.518     490.957
  H     -557.171     164.818     488.963
  H     -555.710     165.488     487.062
  H     -552.048     165.241     487.241
  H     -554.300     164.098     485.534
  H     -553.392     164.985     483.623
  H     -552.338     167.354     484.853
  H     -554.771     168.095     484.884
  H     -554.216     167.461     483.312
  P     -550.983     164.297     482.784
  C     -551.417     166.368     481.222
  O     -551.582     164.978     481.470
  O     -551.115     162.816     482.898
  O     -549.409     164.634     482.672
  H     -548.982     163.833     482.311
  H     -551.889     166.624     480.296
  H     -550.374     166.599     481.167
  H     -551.865     166.928     482.017

 6  7  8  9  10  11  12  13  14  15  16  26  31  32  33  34  35 0
 6-311+G(2d,p)
 ****
 36  37 0
 6-311+G(2d,p)
 ****
 1  2  3  4  5  17  18  19  20  21  22  23  24  25 0
 3-21G
 ****
 27  28  29  30  38  39  40  41  42  43  44  45 0
 3-21G
 ****


