%nproc=1
%NoSave
%Mem=1900MB
#P OB98/GEN NMR

erre ene a

0 1
  C     -272.452      -2.565    -177.538
  O     -271.646      -3.681    -177.883
  P     -271.804      -4.288    -179.358
  C     -274.104      -5.415    -178.998
  O     -272.713      -5.605    -179.214
  C     -274.869      -6.717    -179.200
  O     -276.248      -6.524    -178.778
  C     -274.896      -7.215    -180.654
  O     -274.668      -8.631    -180.673
  C     -276.334      -6.974    -181.083
  O     -276.729      -7.849    -182.134
  C     -277.060      -7.198    -179.760
  N     -281.862      -8.486    -178.865
  C     -280.696      -9.159    -178.559
  N     -280.835     -10.376    -177.985
  N     -279.500      -8.688    -178.797
  C     -279.511      -7.449    -179.347
  C     -280.599      -6.678    -179.686
  C     -281.916      -7.238    -179.472
  O     -282.986      -6.730    -179.803
  N     -280.209      -5.469    -180.205
  C     -278.892      -5.509    -180.183
  N     -278.421      -6.709    -179.716
  O     -270.343      -4.865    -179.666
  O     -272.233      -3.316    -180.405
  H     -276.571      -8.762    -181.823
  H     -269.999      -4.470    -180.491
  H     -282.755      -8.904    -178.674
  H     -278.244      -4.710    -180.522
  H     -277.083      -8.268    -179.509
  H     -276.437      -5.941    -181.433
  H     -281.724     -10.782    -177.739
  H     -274.178      -6.717    -181.314
  H     -279.991     -10.873    -177.732
  H     -274.438      -7.481    -178.538
  H     -274.479      -4.666    -179.703
  H     -274.256      -5.044    -177.978
  P     -273.356      -9.120    -181.461
  C     -274.284      -9.065    -183.893
  O     -273.890      -9.848    -182.784
  O     -272.810     -10.323    -180.557
  O     -272.338      -8.049    -181.666
  H     -271.853     -10.448    -180.696
  H     -274.021      -8.011    -183.770
  H     -275.367      -9.147    -184.018
  H     -273.794      -9.449    -184.791
  H     -272.241      -2.270    -176.531
  H     -273.485      -2.831    -177.622
  H     -272.238      -1.752    -178.200

 3  4  5  6  7  8  9  10  11  12  23  26  30  31  33  0
 6-311+G(2d,p)
 ****
 35  36  37  38 0
 6-311+G(2d,p)
 ****
 1  2  13  14  15  16  17  18  19  20  21  22  24  25  27  28  29 0
 3-21G
 ****
 32  34  39  40  41  42  43  44  45  46  47  48  49 0
 3-21G
 ****


