%nproc=1
%NoSave
%Mem=1900MB
#P OB98/GEN NMR

erre ene a

0 1
  C      965.337    -889.130      -1.582
  O      964.283    -890.090      -1.499
  H      964.942    -888.210      -2.016
  H      966.130    -889.510      -2.236
  H      965.738    -888.920      -0.597
  P      964.573    -891.420      -0.686
  C      965.505    -892.430      -2.914
  O      965.705    -892.220      -1.512
  C      966.515    -893.440      -3.444
  O      966.405    -894.660      -2.669
  C      966.306    -893.820      -4.932
  O      967.603    -894.020      -5.527
  C      965.579    -895.120      -4.845
  O      965.716    -895.940      -6.014
  C      966.222    -895.760      -3.598
  N      965.428    -896.830      -3.032
  C      966.020    -898.080      -2.924
  O      967.191    -898.330      -3.164
  N      965.197    -899.080      -2.461
  C      963.880    -898.980      -2.144
  O      963.194    -899.910      -1.766
  C      963.291    -897.630      -2.287
  C      964.089    -896.620      -2.726
  O      963.256    -892.290      -0.935
  O      964.892    -891.260       0.769
  H      962.583    -892.120      -0.245
  H      965.316    -896.820      -5.838
  H      965.599    -900.000      -2.365
  H      962.249    -897.500      -2.070
  H      963.684    -895.640      -2.868
  H      967.237    -896.140      -3.851
  H      964.523    -894.960      -4.671
  H      965.750    -893.080      -5.495
  H      967.522    -893.070      -3.277
  H      965.644    -891.470      -3.428
  H      964.483    -892.780      -3.090
  P      968.155    -892.880      -6.500
  C      966.595    -893.670      -8.457
  O      967.003    -892.630      -7.593
  O      969.278    -893.670      -7.289
  O      968.619    -891.660      -5.754
  H      969.048    -894.600      -7.470
  H      965.825    -893.312      -9.107
  H      966.221    -894.489      -7.878
  H      967.430    -893.998      -9.040

 6  7  8  9  10  11  12  13  14  15  16  27  31  32  33  34  35 0
 6-311+G(2d,p)
 ****
 36  37 0
 6-311+G(2d,p)
 ****
 1  2  3  4  5  17  18  19  20  21  22  23  24  25 0
 3-21G
 ****
 26  28  29  30  38  39  40  41  42  43  44  45 0
 3-21G
 ****


