%nproc=1
%NoSave
%Mem=1900MB
#P OB98/GEN NMR

erre ene a

0 1
  C      255.124     -99.394    -173.214
  O      255.216     -98.206    -172.450
  H      254.360     -99.258    -173.983
  H      254.836    -100.230    -172.573
  H      256.080     -99.606    -173.700
  P      256.302     -98.199    -171.271
  C      254.910     -96.619    -169.732
  O      256.097     -96.814    -170.487
  C      254.236     -95.297    -170.125
  O      253.481     -95.506    -171.354
  C      253.244     -94.769    -169.076
  O      253.212     -93.333    -169.184
  C      251.930     -95.347    -169.576
  O      250.833     -94.724    -168.951
  C      252.114     -95.129    -171.076
  N      247.378     -95.379    -172.994
  C      248.003     -94.430    -172.261
  N      249.269     -94.428    -171.799
  C      249.917     -95.543    -172.178
  C      249.416     -96.592    -172.931
  C      248.076     -96.486    -173.345
  N      247.434     -97.455    -174.083
  N      250.383     -97.566    -173.116
  C      251.447     -97.109    -172.487
  N      251.209     -95.896    -171.900
  O      257.687     -97.997    -172.047
  O      256.316     -99.415    -170.405
  H      250.915     -94.771    -167.975
  H      258.107     -98.863    -172.207
  H      247.404     -93.557    -172.013
  H      252.402     -97.616    -172.416
  H      251.997     -94.073    -171.350
  H      251.862     -96.415    -169.342
  H      253.502     -95.052    -168.052
  H      255.011     -94.556    -170.352
  H      255.175     -96.599    -168.669
  H      254.221     -97.447    -169.916
  H      246.468     -97.307    -174.327
  H      247.938     -98.292    -174.337
  P      252.698     -92.466    -167.932
  C      251.043     -91.108    -169.438
  O      252.090     -91.086    -168.477
  O      254.080     -91.982    -167.272
  O      251.867     -93.201    -166.931
  H      253.954     -91.839    -166.316
  H      250.764     -90.105    -169.685
  H      250.198     -91.624    -169.033
  H      251.379     -91.612    -170.320

 6  7  8  9  10  11  12  13  14  15  25  28  32  33  34  35 0
 6-311+G(2d,p)
 ****
 36  37  40 0
 6-311+G(2d,p)
 ****
 1  2  3  4  5  16  17  18  19  20  21  22  23  24 0
 3-21G
 ****
 26  27  29  30  31  38  39 41  42  43  44  45  46  47  48 0
 3-21G
 ****


