%nproc=1
%NoSave
%Mem=1900MB
#P OB98/GEN NMR

erre ene a

0 1
  C      648.152     708.341      93.578
  O      647.924     708.035      94.945
  H      647.662     707.585      92.966
  H      649.225     708.318      93.360
  H      647.740     709.318      93.343
  P      648.665     708.972      96.016
  C      647.857     707.193      97.760
  O      648.934     707.977      97.261
  C      648.337     706.309      98.905
  O      649.284     705.326      98.419
  C      649.068     707.050     100.018
  O      648.204     707.755     100.891
  C      649.760     705.880     100.705
  O      648.801     705.145     101.481
  C      650.244     705.071      99.476
  N      651.592     705.431      99.041
  C      652.499     704.372      98.841
  O      652.153     703.212      99.045
  N      653.791     704.665      98.479
  C      654.153     705.911      98.284
  N      655.440     706.140      97.927
  C      653.232     707.051      98.470
  C      651.983     706.734      98.849
  O      647.493     709.912      96.570
  O      649.870     709.693      95.529
  H      648.015     705.011     100.911
  H      647.816     710.432      97.353
  H      653.579     708.068      98.327
  H      651.251     707.527      98.998
  H      650.232     703.993      99.691
  H      650.558     706.189     101.387
  H      649.836     707.726      99.604
  H      647.459     705.766      99.297
  H      656.071     705.335      97.870
  H      647.474     706.579      96.944
  H      655.853     707.067      97.896
  H      647.058     707.854      98.118
  P      648.876     708.667     102.026
  C      646.493     708.951     103.066
  O      647.872     708.674     103.281
  O      648.712     710.159     101.426
  O      650.311     708.358     102.340
  H      649.469     710.727     101.670
  H      645.972     708.916     104.000
  H      646.082     708.221     102.401
  H      646.388     709.925     102.636

 6  7  8  9  10  11  12  13  14  15  16  26  30  31  32  33  35 0
 6-311+G(2d,p)
 ****
 37  38 0
 6-311+G(2d,p)
 ****
 1  2  3  4  5  17  18  19  20  21  22  23  24  25 0
 3-21G
 ****
 27  28  29  34  36  39  40  41  42  43  44  45  46 0
 3-21G
 ****


