%nproc=1
%NoSave
%Mem=1900MB
#P OB98/GEN NMR

erre ene a

0 1
  C      169.135     100.820    -304.362
  O      168.847     101.690    -305.458
  P      167.351     102.235    -305.655
  C      166.330     100.258    -306.943
  O      166.350     100.974    -305.712
  C      164.971      99.559    -307.181
  O      163.880     100.521    -307.161
  C      164.887      98.806    -308.515
  O      164.077      97.639    -308.292
  C      164.145      99.796    -309.409
  O      163.580      99.182    -310.553
  C      163.150     100.377    -308.396
  N      162.578     101.639    -308.844
  C      161.435     101.578    -309.639
  O      161.014     100.479    -310.025
  N      160.826     102.745    -310.002
  C      161.384     103.886    -309.717
  N      160.741     105.026    -310.082
  C      162.693     103.987    -309.039
  C      163.212     102.840    -308.606
  O      167.163     103.237    -306.741
  O      167.013     102.875    -304.210
  H      164.303      98.821    -311.109
  H      166.438     103.655    -304.344
  H      163.164     104.946    -308.889
  H      164.159     102.808    -308.083
  H      162.334      99.672    -308.202
  H      164.842     100.571    -309.751
  H      165.863      98.494    -308.913
  H      164.803      98.858    -306.360
  H      159.860     104.943    -310.572
  H      167.120      99.506    -306.933
  H      161.085     105.947    -309.849
  H      166.569     100.939    -307.765
  P      164.763      96.344    -307.620
  C      165.762      95.154    -309.704
  O      166.010      95.910    -308.533
  O      163.687      95.203    -307.947
  O      165.010      96.417    -306.146
  H      163.777      94.488    -307.279
  H      166.653      95.190    -310.343
  H      164.915      95.556    -310.270
  H      165.553      94.110    -309.443
  H      170.171     100.554    -304.380
  H      168.539      99.935    -304.443
  H      168.911     101.319    -303.442

 3  4  5  6  7  8  9  10  11  12  13  23  27  28  29  30  32 0
 6-311+G(2d,p)
 ****
 34  35 0
 6-311+G(2d,p)
 ****
 1  2  14  15  16  17  18  19  20  21  22  24  25  26 0
 3-21G
 ****
 31  33  36  37  38  39  40  41  42  43  44  45  46 0
 3-21G
 ****


