%nproc=1
%NoSave
%Mem=1900MB
#P OB98/GEN NMR

erre ene a

0 1
  C      -38.015     179.598    -495.154
  O      -38.469     178.711    -496.163
  P      -39.140     179.276    -497.505
  C      -37.449     178.267    -499.162
  O      -37.950     179.462    -498.569
  C      -37.017     178.522    -500.602
  O      -38.191     178.760    -501.410
  C      -36.099     179.732    -500.756
  O      -35.133     179.466    -501.781
  C      -37.022     180.841    -501.246
  O      -36.298     181.833    -501.989
  C      -38.045     180.042    -502.058
  N      -41.855     181.637    -505.104
  C      -40.707     180.986    -505.377
  N      -39.728     180.614    -504.519
  C      -40.056     180.933    -503.257
  C      -41.200     181.598    -502.832
  C      -42.129     181.957    -503.817
  N      -43.313     182.606    -503.538
  N      -41.172     181.773    -501.458
  C      -40.048     181.215    -501.068
  N      -39.342     180.685    -502.118
  O      -40.000     180.479    -497.327
  O      -39.963     178.038    -498.098
  H      -36.922     182.565    -502.176
  H      -40.804     178.344    -498.485
  H      -40.548     180.731    -506.420
  H      -39.693     181.177    -500.045
  H      -37.697     179.861    -503.085
  H      -37.486     181.338    -500.389
  H      -35.590     180.008    -499.823
  H      -36.524     177.620    -500.987
  H      -38.245     177.516    -499.154
  H      -43.969     182.718    -504.289
  H      -43.597     182.687    -502.569
  H      -36.610     177.887    -498.563
  P      -33.595     179.656    -501.360
  C      -33.176     177.106    -501.051
  O      -33.259     178.378    -500.454
  O      -33.333     181.001    -500.772
  O      -32.861     179.385    -502.760
  H      -33.404     178.824    -503.351
  H      -32.975     176.362    -500.273
  H      -32.355     177.082    -501.777
  H      -34.118     176.850    -501.551
  H      -37.601     179.035    -494.344
  H      -38.837     180.184    -494.798
  H      -37.265     180.245    -495.559

 3  4  5  6  7  8  9  10  11  12  22  25  29  30  31  32 0
 6-311+G(2d,p)
 ****
 33  36  37 0
 6-311+G(2d,p)
 ****
 1  2  13  14  15  16  17  18  19  20  21  23  24  26 0
 3-21G
 ****
 27  28  34  35  38  39  40  41  42  43  44  45  46  47  48 0
 3-21G
 ****


