%nproc=1
%NoSave
%Mem=1900MB
#P OB98/GEN NMR

erre ene a

0 1
  C     -186.668    1128.146    -431.372
  O     -187.294    1126.877    -431.473
  H     -187.091    1128.685    -430.530
  H     -186.872    1128.720    -432.289
  H     -185.593    1128.044    -431.230
  P     -186.688    1125.854    -432.539
  C     -186.245    1123.894    -430.844
  O     -186.965    1124.377    -431.958
  C     -187.053    1122.833    -430.101
  O     -188.061    1123.470    -429.285
  C     -187.761    1121.824    -431.023
  O     -187.753    1120.538    -430.410
  C     -189.197    1122.355    -431.083
  O     -190.129    1121.334    -431.419
  C     -189.361    1122.926    -429.660
  N     -190.405    1123.935    -429.560
  C     -191.733    1123.454    -429.436
  O     -191.936    1122.231    -429.417
  N     -192.763    1124.364    -429.402
  C     -192.525    1125.619    -429.521
  N     -193.587    1126.469    -429.468
  C     -191.157    1126.169    -429.689
  C     -190.150    1125.280    -429.690
  O     -185.115    1126.052    -432.336
  O     -187.163    1126.085    -433.953
  H     -191.010    1121.758    -431.518
  H     -184.845    1126.069    -431.405
  H     -191.009    1127.253    -429.804
  H     -189.130    1125.587    -429.820
  H     -189.563    1122.110    -428.952
  H     -189.271    1123.157    -431.822
  H     -187.290    1121.772    -432.025
  H     -186.368    1122.292    -429.409
  H     -194.505    1126.042    -429.375
  H     -186.010    1124.717    -430.148
  H     -193.512    1127.458    -429.625
  H     -185.287    1123.472    -431.212
  P     -188.046    1119.232    -431.303
  C     -185.804    1118.117    -430.633
  O     -187.211    1117.995    -430.685
  O     -187.926    1119.434    -432.768
  O     -189.569    1118.875    -430.880
  H     -190.031    1118.613    -431.700
  H     -185.385    1117.231    -430.204
  H     -185.541    1118.963    -430.033
  H     -185.421    1118.250    -431.623

 6  7  8  9  10  11  12  13  14  15  16  26  30  31  32  33  35 0
 6-311+G(2d,p)
 ****
 37  38 0
 6-311+G(2d,p)
 ****
 1  2  3  4  5  17  18  19  20  21  22  23  24  25 0
 3-21G
 ****
 27  28  29  34  36  39  40  41  42  43  44  45  46 0
 3-21G
 ****


