%nproc=1
%NoSave
%Mem=1900MB
#P OB98/GEN NMR

erre ene a

0 1
  C      495.034    -538.566     288.573
  O      495.291    -537.167     288.476
  P      494.211    -536.071     288.045
  C      494.896    -535.917     285.519
  O      493.912    -536.254     286.485
  C      494.827    -536.787     284.256
  O      493.469    -536.797     283.746
  C      495.703    -536.202     283.150
  O      497.090    -536.472     283.122
  C      494.979    -536.547     281.855
  O      495.458    -537.753     281.267
  C      493.525    -536.713     282.306
  N      489.863    -535.252     279.041
  C      490.519    -536.458     279.133
  N      490.203    -537.385     278.201
  N      491.417    -536.730     280.040
  C      491.706    -535.687     280.849
  C      491.140    -534.434     280.846
  C      490.103    -534.159     279.869
  O      489.479    -533.109     279.761
  N      491.705    -533.625     281.801
  C      492.622    -534.383     282.364
  N      492.661    -535.643     281.822
  O      494.474    -534.684     288.527
  O      492.852    -536.589     288.756
  H      496.413    -537.641     281.081
  H      492.344    -535.786     288.987
  H      489.162    -535.099     278.336
  H      493.281    -534.067     283.161
  H      493.099    -537.650     281.922
  H      495.120    -535.758     281.106
  H      489.605    -537.201     277.414
  H      495.635    -535.102     283.230
  H      490.827    -538.188     278.131
  H      495.066    -537.828     284.491
  H      495.869    -536.019     286.008
  H      494.798    -534.862     285.242
  P      498.209    -535.766     284.027
  C      497.920    -533.620     282.665
  O      497.983    -534.186     283.962
  O      499.559    -535.962     283.186
  O      498.360    -536.328     285.404
  H      500.337    -535.804     283.752
  H      498.070    -532.538     282.735
  H      496.941    -533.803     282.225
  H      498.700    -534.041     282.017
  H      495.925    -539.072     288.881
  H      494.724    -538.939     287.619
  H      494.260    -538.737     289.292

 3  4  5  6  7  8  9  10  11  12  23  26  30  31 0
 6-311+G(2d,p)
 ****
 33  35  36  37  38 0
 6-311+G(2d,p)
 ****
 1  2  13  14  15  16  17  18  19  20  21  22  24  25 0
 3-21G
 ****
 27  28  29  32  34  39  40  41  42  43  44  45  46  47  48  49 0
 3-21G
 ****


