%nproc=1
%NoSave
%Mem=1900MB
#P OB98/GEN NMR

erre ene a

0 1
  C     -157.241     352.838     488.836
  O     -157.046     354.149     488.343
  H     -156.264     352.372     488.990
  H     -157.806     352.243     488.115
  H     -157.773     352.866     489.791
  P     -158.367     355.017     488.068
  C     -158.673     357.595     487.897
  O     -158.041     356.508     488.564
  C     -158.444     358.882     488.684
  O     -159.094     358.788     489.974
  C     -156.981     359.169     488.991
  O     -156.292     359.711     487.877
  C     -157.109     360.133     490.156
  O     -157.332     361.476     489.703
  C     -158.340     359.608     490.899
  N     -159.125     359.079     495.913
  C     -159.693     359.887     494.993
  N     -159.436     359.957     493.668
  C     -158.504     359.058     493.320
  C     -157.839     358.165     494.149
  C     -158.184     358.197     495.509
  N     -157.588     357.391     496.448
  N     -156.922     357.429     493.427
  C     -157.033     357.855     492.184
  N     -157.980     358.837     492.074
  O     -159.395     354.467     489.167
  O     -158.920     354.912     486.688
  H     -156.589     361.689     489.099
  H     -160.007     353.830     488.751
  H     -160.446     360.576     495.369
  H     -156.450     357.498     491.346
  H     -159.001     360.415     491.233
  H     -156.197     360.137     490.757
  H     -156.482     358.250     489.341
  H     -158.898     359.718     488.135
  H     -159.747     357.402     487.825
  H     -158.258     357.683     486.888
  H     -157.836     357.515     497.419
  H     -156.808     356.813     496.175
  P     -154.690     359.641     487.884
  C     -152.853     359.582     486.030
  O     -154.217     359.385     486.371
  O     -154.374     358.247     488.617
  O     -154.023     360.793     488.557
  H     -153.557     358.339     489.155
  H     -152.711     359.369     484.991
  H     -152.241     358.928     486.615
  H     -152.579     360.597     486.227

 6  7  8  9  10  11  12  13  14  15  25  28  32  33  34  35 0
 6-311+G(2d,p)
 ****
 36  37  40 0
 6-311+G(2d,p)
 ****
 1  2  3  4  5  16  17  18  19  20  21  22  23  24 0
 3-21G
 ****
 26  27  29  30  31  38  39 41  42  43  44  45  46  47  48 0
 3-21G
 ****


