%nproc=1
%NoSave
%Mem=1900MB
#P OB98/GEN NMR

erre ene a

0 1
  C        7.860    -252.217     166.295
  O        7.097    -252.626     165.178
  H        7.985    -251.131     166.251
  H        8.849    -252.680     166.267
  H        7.352    -252.473     167.228
  P        6.680    -254.170     165.050
  C        4.627    -255.423     164.145
  O        5.379    -254.220     164.110
  C        3.212    -255.188     163.619
  O        2.559    -254.206     164.463
  C        3.168    -254.673     162.176
  O        2.052    -255.269     161.517
  C        2.929    -253.185     162.342
  O        2.279    -252.611     161.210
  C        2.086    -253.142     163.616
  N        0.073    -248.525     164.006
  C       -0.344    -249.621     163.277
  N       -1.451    -249.462     162.519
  N        0.269    -250.776     163.290
  C        1.353    -250.798     164.103
  C        1.868    -249.781     164.872
  C        1.186    -248.503     164.840
  O        1.517    -247.495     165.450
  N        2.998    -250.187     165.540
  C        3.165    -251.444     165.172
  N        2.199    -251.858     164.293
  O        6.536    -254.904     166.345
  O        7.823    -254.805     164.130
  H        2.904    -252.674     160.456
  H        8.479    -255.280     164.674
  H       -0.433    -247.658     163.953
  H        3.965    -252.092     165.504
  H        1.019    -253.303     163.416
  H        3.886    -252.670     162.487
  H       -1.985    -248.608     162.473
  H        4.087    -254.883     161.621
  H       -1.791    -250.261     161.994
  H        2.645    -256.121     163.721
  H        4.582    -255.771     165.181
  H        5.132    -256.185     163.538
  P        2.283    -256.607     160.666
  C        1.309    -258.988     160.813
  O        1.047    -257.596     160.940
  O        3.634    -257.228     160.792
  O        2.008    -256.122     159.161
  H        2.550    -256.663     158.553
  H        0.415    -259.539     161.018
  H        2.071    -259.272     161.508
  H        1.638    -259.200     159.817

 6  7  8  9  10  11  12  13  14  15  26  29  33  34 0
 6-311+G(2d,p)
 ****
 36  38  39  40  41 0
 6-311+G(2d,p)
 ****
 1  2  3  4  5  16  17  18  19  20  21  22  23  24  25 0
 3-21G
 ****
 27  28  30  31  32  35  37  42  43  44  45  46  47 0
 3-21G
 ****
 48  49 0
 3-21G
 ****


