%nproc=1
%NoSave
%Mem=1900MB
#P OB98/GEN NMR

erre ene a

0 1
  C      158.163      24.829     797.159
  O      159.259      24.058     796.668
  P      159.383      22.546     797.167
  C      161.698      22.588     798.343
  O      160.294      22.578     798.495
  C      162.371      21.958     799.556
  O      162.179      22.782     800.739
  C      161.820      20.584     799.941
  O      162.372      19.542     799.154
  C      162.299      20.467     801.386
  O      163.682      20.073     801.414
  C      162.144      21.914     801.889
  N      160.024      24.133     805.936
  C      161.286      24.294     805.379
  N      162.117      25.138     806.042
  N      161.698      23.713     804.290
  C      160.752      22.896     803.742
  C      159.477      22.643     804.180
  C      159.045      23.301     805.400
  O      157.958      23.145     805.966
  N      158.820      21.767     803.358
  C      159.692      21.480     802.412
  N      160.909      22.115     802.631
  O      160.342      21.867     796.079
  O      158.081      21.814     797.294
  H      163.728      19.155     801.071
  H      160.273      20.890     796.122
  H      159.757      24.602     806.776
  H      159.515      20.834     801.572
  H      162.972      22.203     802.551
  H      161.748      19.729     801.966
  H      161.889      25.578     806.924
  H      160.720      20.572     799.924
  H      163.074      25.238     805.705
  H      163.456      21.900     799.371
  H      162.045      23.618     798.222
  H      161.975      22.035     797.435
  P      161.336      18.466     798.547
  C      161.327      17.274     800.856
  O      160.578      17.860     799.816
  O      162.294      17.275     798.067
  O      160.485      19.001     797.442
  H      161.880      16.789     797.347
  H      160.701      17.157     801.738
  H      162.184      17.906     801.127
  H      161.695      16.286     800.544
  H      158.206      25.814     796.744
  H      158.218      24.888     798.226
  H      157.243      24.362     796.875

 3  4  5  6  7  8  9  10  11  12  23  26  30  31 0
 6-311+G(2d,p)
 ****
 33  35  36  37  38 0
 6-311+G(2d,p)
 ****
 1  2  13  14  15  16  17  18  19  20  21  22  24  25 0
 3-21G
 ****
 27  28  29  32  34  39  40  41  42  43  44  45  46  47  48  49 0
 3-21G
 ****


