%nproc=1
%NoSave
%Mem=1900MB
#P OB98/GEN NMR

erre ene a

0 1
  C     -540.338     772.286    -402.864
  O     -540.278     773.416    -402.004
  P     -539.652     773.201    -400.540
  C     -540.352     771.912    -398.416
  O     -540.617     772.153    -399.789
  C     -541.650     771.727    -397.635
  O     -542.351     773.017    -397.587
  C     -542.620     770.706    -398.253
  O     -543.178     769.883    -397.206
  C     -543.751     771.574    -398.812
  O     -544.977     770.854    -398.898
  C     -543.751     772.724    -397.791
  N     -548.211     775.096    -397.666
  C     -547.760     774.019    -396.910
  N     -548.636     773.470    -396.046
  N     -546.545     773.531    -397.011
  C     -545.764     774.202    -397.895
  C     -546.095     775.269    -398.678
  C     -547.447     775.775    -398.607
  O     -547.943     776.660    -399.305
  N     -545.015     775.694    -399.431
  C     -544.039     774.864    -399.104
  N     -544.458     773.910    -398.210
  O     -539.978     774.600    -399.815
  O     -538.201     772.892    -400.511
  H     -544.794     770.068    -399.444
  H     -539.141     774.990    -399.479
  H     -549.165     775.423    -397.570
  H     -543.025     774.894    -399.511
  H     -544.174     772.391    -396.838
  H     -543.465     771.924    -399.811
  H     -549.579     773.813    -395.901
  H     -542.172     770.064    -399.025
  H     -548.323     772.706    -395.476
  H     -541.413     771.464    -396.603
  H     -539.788     772.763    -397.999
  H     -539.732     771.011    -398.316
  P     -543.082     768.310    -397.438
  C     -545.057     766.706    -398.023
  O     -544.358     767.893    -398.315
  O     -543.412     767.700    -395.984
  O     -541.747     767.845    -397.948
  H     -543.017     766.811    -395.880
  H     -544.742     766.264    -397.077
  H     -544.892     765.996    -398.833
  H     -546.127     766.924    -397.962
  H     -540.774     772.572    -403.798
  H     -540.936     771.524    -402.410
  H     -539.349     771.912    -403.031

 3  4  5  6  7  8  9  10  11  12  23  26  30  31  33  0
 6-311+G(2d,p)
 ****
 35  36  37  38 0
 6-311+G(2d,p)
 ****
 1  2  13  14  15  16  17  18  19  20  21  22  24  25  27  28  29 0
 3-21G
 ****
 32  34  39  40  41  42  43  44  45  46  47  48  49 0
 3-21G
 ****


