%nproc=1
%NoSave
%Mem=1900MB
#P OB98/GEN NMR

erre ene a

0 1
  C      533.228    -824.080     112.506
  O      533.356    -823.809     113.884
  H      532.777    -825.071     112.387
  H      534.205    -824.081     112.018
  H      532.574    -823.344     112.027
  P      534.056    -822.433     114.330
  C      536.406    -823.439     114.672
  O      535.603    -822.545     113.919
  C      537.849    -823.430     114.153
  O      538.338    -822.068     114.241
  C      538.788    -824.340     114.967
  O      539.509    -825.274     114.171
  C      539.586    -823.349     115.800
  O      540.860    -823.809     116.202
  C      539.605    -822.087     114.919
  N      539.810    -820.849     115.662
  C      541.081    -820.292     115.646
  O      542.049    -820.743     115.030
  N      541.245    -819.137     116.376
  C      540.274    -818.511     117.101
  O      540.477    -817.479     117.721
  C      538.948    -819.161     117.092
  C      538.781    -820.287     116.393
  O      533.814    -822.018     115.745
  O      533.485    -821.349     113.299
  H      541.354    -824.055     115.401
  H      532.789    -820.825     113.734
  H      542.157    -818.727     116.353
  H      538.165    -818.699     117.671
  H      537.818    -820.787     116.369
  H      540.398    -822.168     114.178
  H      539.024    -823.129     116.722
  H      538.201    -824.982     115.650
  H      537.838    -823.714     113.084
  H      535.978    -824.443     114.582
  H      536.394    -823.145     115.729
  P      539.177    -826.833     114.081
  C      540.194    -827.833     116.287
  O      539.050    -827.393     115.575
  O      540.027    -827.619     113.140
  O      537.666    -826.864     113.526
  H      537.587    -827.677     112.976
  H      539.901    -828.168     117.260
  H      540.888    -827.024     116.382
  H      540.656    -828.639     115.757

 6  7  8  9  10  11  12  13  14  15  16  26  31  32  33  34  35 0
 6-311+G(2d,p)
 ****
 36  37 0
 6-311+G(2d,p)
 ****
 1  2  3  4  5  17  18  19  20  21  22  23  24  25 0
 3-21G
 ****
 27  28  29  30  38  39  40  41  42  43  44  45 0
 3-21G
 ****


