%nproc=1
%NoSave
%Mem=1900MB
#P OB98/GEN NMR

erre ene a

0 1
  C      198.891     784.218     397.013
  O      199.694     785.016     396.161
  H      199.168     784.430     398.050
  H      199.072     783.162     396.806
  H      197.834     784.453     396.872
  P      199.411     784.876     394.587
  C      199.975     782.373     394.144
  O      198.973     783.352     394.346
  C      199.339     780.980     394.043
  O      198.511     780.923     392.840
  C      200.364     779.835     393.930
  O      199.803     778.649     394.527
  C      200.444     779.642     392.423
  O      201.053     778.409     392.115
  C      198.976     779.803     392.060
  N      196.363     778.318     387.944
  C      196.296     777.931     389.240
  N      197.030     778.385     390.282
  C      197.869     779.351     389.870
  C      198.049     779.835     388.596
  C      197.248     779.268     387.595
  N      197.324     779.631     386.267
  N      199.045     780.813     388.579
  C      199.442     780.902     389.825
  N      198.766     780.035     390.647
  O      200.879     784.950     393.944
  O      198.492     785.894     394.002
  H      200.627     777.674     392.595
  H      201.089     785.871     393.704
  H      195.571     777.170     389.471
  H      200.222     781.564     390.192
  H      198.376     778.933     392.346
  H      201.057     780.426     391.958
  H      201.329     780.069     394.407
  H      198.668     780.824     394.903
  H      200.670     782.400     394.985
  H      200.518     782.588     393.223
  H      196.734     779.156     385.609
  H      198.006     780.321     385.982
  P      200.150     778.311     396.050
  C      202.741     778.065     395.897
  O      201.635     778.796     396.417
  O      200.307     776.713     396.011
  O      199.102     778.696     397.052
  H      199.836     776.312     396.757
  H      203.653     778.513     396.231
  H      202.707     778.080     394.828
  H      202.693     777.053     396.241

 6  7  8  9  10  11  12  13  14  15  25  28  32  33  34  35 0
 6-311+G(2d,p)
 ****
 36  37  40 0
 6-311+G(2d,p)
 ****
 1  2  3  4  5  16  17  18  19  20  21  22  23  24 0
 3-21G
 ****
 26  27  29  30  31  38  39 41  42  43  44  45  46  47  48 0
 3-21G
 ****


