%nproc=1
%NoSave
%Mem=1900MB
#P OB98/GEN NMR

erre ene a

0 1
  C      -99.096      29.211     459.022
  O     -100.418      29.670     459.183
  H      -99.023      28.536     458.162
  H      -98.439      30.070     458.850
  H      -98.765      28.691     459.928
  P     -101.552      28.542     459.341
  C     -102.683      29.546     461.445
  O     -102.801      29.248     460.059
  C     -103.537      30.762     461.794
  O     -103.039      31.938     461.120
  C     -105.000      30.654     461.383
  O     -105.753      29.855     462.291
  C     -105.421      32.117     461.441
  O     -105.698      32.488     462.804
  C     -104.161      32.841     460.942
  N     -105.564      36.535     457.653
  C     -105.634      36.460     459.005
  N     -105.256      35.442     459.810
  C     -104.731      34.435     459.091
  C     -104.588      34.373     457.715
  C     -105.041      35.482     456.976
  N     -104.972      35.551     455.603
  N     -104.005      33.185     457.331
  C     -103.795      32.536     458.458
  N     -104.222      33.248     459.549
  O     -100.963      27.578     460.476
  O     -101.876      27.782     458.096
  H     -106.495      31.989     463.076
  H     -101.218      26.656     460.279
  H     -106.057      37.319     459.506
  H     -103.325      31.556     458.530
  H     -103.946      33.736     461.549
  H     -106.319      32.332     460.852
  H     -105.102      30.288     460.354
  H     -103.450      30.939     462.877
  H     -101.634      29.768     461.680
  H     -105.123      36.440     455.157
  H     -104.574      34.762     455.106
  H     -103.004      28.678     462.028
  P     -107.102      29.182     461.738
  C     -106.981      26.794     462.758
  O     -107.525      28.105     462.855
  O     -106.588      28.272     460.523
  O     -108.158      30.138     461.307
  H     -107.310      28.133     459.881
  H     -107.350      26.194     463.564
  H     -105.914      26.846     462.812
  H     -107.270      26.356     461.826

 6  7  8  9  10  11  12  13  14  15  25  28  32  33  34  35 0
 6-311+G(2d,p)
 ****
 36  39  40 0
 6-311+G(2d,p)
 ****
 1  2  3  4  5  16  17  18  19  20  21  22  23  24 0
 3-21G
 ****
 26  27  29  30  31  37  38  41  42  43  44  45  46  47  48 0
 3-21G
 ****


