%nproc=1
%NoSave
%Mem=1900MB
#P OB98/GEN NMR

erre ene a

0 1
  C     -118.262    -104.913     -43.015
  O     -117.505    -105.871     -43.749
  P     -116.551    -106.873     -42.942
  C     -118.052    -109.051     -43.008
  O     -117.423    -108.028     -42.269
  C     -117.037    -110.170     -43.291
  O     -116.529    -110.709     -42.051
  C     -117.628    -111.336     -44.076
  O     -117.575    -111.117     -45.474
  C     -116.769    -112.495     -43.612
  O     -115.494    -112.471     -44.278
  C     -116.600    -112.162     -42.110
  N     -117.647    -112.623     -41.173
  C     -117.509    -113.849     -40.528
  O     -116.556    -114.609     -40.684
  N     -118.516    -114.191     -39.664
  C     -119.534    -113.383     -39.253
  O     -120.374    -113.721     -38.430
  C     -119.551    -112.044     -39.849
  C     -118.636    -111.735     -40.771
  O     -116.048    -106.002     -41.701
  O     -115.410    -107.418     -43.743
  H     -115.658    -112.650     -45.221
  H     -115.084    -105.862     -41.752
  H     -118.468    -115.106     -39.243
  H     -120.314    -111.353     -39.517
  H     -118.641    -110.745     -41.220
  H     -115.647    -112.553     -41.734
  H     -117.224    -113.450     -43.863
  H     -118.655    -111.529     -43.752
  H     -116.192    -109.740     -43.843
  H     -118.451    -108.664     -43.949
  H     -118.902    -109.444     -42.442
  P     -118.412    -112.059     -46.462
  C     -120.750    -111.146     -45.940
  O     -119.854    -112.228     -45.779
  O     -117.744    -113.324     -46.883
  O     -118.731    -111.103     -47.710
  H     -118.072    -111.239     -48.429
  H     -121.735    -111.448     -45.572
  H     -120.834    -110.871     -46.994
  H     -120.404    -110.287     -45.358
  H     -118.844    -104.324     -43.692
  H     -117.598    -104.277     -42.468
  H     -118.913    -105.419     -42.333

 3  4  5  6  7  8  9  10  11  12  13  23  28  29  30  31  32 0
 6-311+G(2d,p)
 ****
 33  34 0
 6-311+G(2d,p)
 ****
 1  2  14  15  16  17  18  19  20  21  22  24  25  26  27 0
 3-21G
 ****
 35  36  37  38  39  40  41  42  43  44  45 0
 3-21G
 ****


