%nproc=1
%NoSave
%Mem=1900MB
#P OB98/GEN NMR

erre ene a

0 1
  C       65.328     397.058     322.885
  O       64.415     397.575     321.936
  P       62.838     397.459     322.184
  C       62.433     399.975     322.533
  O       62.385     398.679     323.123
  C       61.021     400.523     322.335
  O       60.216     399.604     321.564
  C       60.252     400.734     323.627
  O       60.722     401.855     324.352
  C       58.826     400.859     323.104
  O       58.579     402.182     322.604
  C       58.835     399.839     321.942
  N       58.158     398.600     322.287
  C       56.789     398.543     321.988
  O       56.210     399.527     321.541
  N       56.120     397.365     322.217
  C       56.726     396.381     322.806
  N       56.032     395.221     322.949
  C       58.126     396.458     323.281
  C       58.779     397.580     322.970
  O       62.360     396.115     322.631
  O       62.192     397.848     320.768
  H       61.541     397.160     320.522
  H       57.794     402.121     322.028
  H       58.563     395.636     323.825
  H       59.818     397.719     323.260
  H       58.354     400.271     321.058
  H       58.079     400.657     323.875
  H       60.330     399.835     324.257
  H       61.097     401.468     321.779
  H       55.085     395.198     322.596
  H       62.937     399.899     321.563
  H       56.489     394.322     323.086
  H       63.020     400.641     323.175
  P       60.378     401.910     325.920
  C       62.748     401.123     326.601
  O       61.354     400.880     326.662
  O       58.940     401.201     326.003
  O       60.334     403.284     326.502
  H       58.400     401.637     326.687
  H       63.233     400.570     327.414
  H       62.976     402.185     326.712
  H       63.140     400.759     325.647
  H       66.329     397.228     322.547
  H       65.165     396.007     323.001
  H       65.181     397.548     323.825

 3  4  5  6  7  8  9  10  11  12  13  24  27  28  29  30  32 0
 6-311+G(2d,p)
 ****
 34  35 0
 6-311+G(2d,p)
 ****
 1  2  14  15  16  17  18  19  20  21  22  23  25  26 0
 3-21G
 ****
 31  33  36  37  38  39  40  41  42  43  44  45  46 0
 3-21G
 ****


