%nproc=1
%NoSave
%Mem=1900MB
#P OB98/GEN NMR

erre ene a

0 1
  C     -724.791    -252.151     957.490
  O     -724.324    -253.487     957.430
  H     -725.485    -251.988     956.654
  H     -723.962    -251.449     957.407
  H     -725.325    -251.988     958.427
  P     -723.206    -253.898     958.517
  C     -721.457    -252.658     957.016
  O     -721.835    -253.873     957.675
  C     -719.979    -252.707     956.668
  O     -719.172    -252.769     957.868
  C     -719.551    -253.921     955.836
  O     -719.897    -253.804     954.457
  C     -718.044    -253.870     956.053
  O     -717.481    -252.801     955.265
  C     -717.978    -253.559     957.560
  N     -717.919    -254.761     958.390
  C     -716.696    -255.422     958.472
  O     -715.711    -254.997     957.858
  N     -716.602    -256.568     959.216
  C     -717.648    -257.015     959.857
  N     -717.488    -258.160     960.578
  C     -718.964    -256.343     959.827
  C     -719.020    -255.228     959.087
  O     -723.456    -255.471     958.725
  O     -723.194    -253.102     959.772
  H     -717.608    -253.045     954.333
  H     -722.728    -255.860     959.266
  H     -719.795    -256.751     960.370
  H     -719.957    -254.679     959.016
  H     -717.100    -252.928     957.799
  H     -717.543    -254.785     955.750
  H     -719.948    -254.847     956.253
  H     -719.727    -251.753     956.154
  H     -716.594    -258.626     960.544
  H     -721.656    -251.828     957.703
  H     -718.273    -258.663     960.986
  H     -722.044    -252.527     956.100
  P     -721.002    -254.820     953.890
  C     -719.861    -257.142     954.226
  O     -720.205    -256.096     953.322
  O     -721.522    -254.091     952.572
  O     -722.112    -255.134     954.837
  H     -722.475    -254.270     952.430
  H     -719.338    -257.912     953.698
  H     -720.752    -257.547     954.658
  H     -719.234    -256.752     955.001

 6  7  8  9  10  11  12  13  14  15  16  26  30  31  32  33  35 0
 6-311+G(2d,p)
 ****
 37  38 0
 6-311+G(2d,p)
 ****
 1  2  3  4  5  17  18  19  20  21  22  23  24  25 0
 3-21G
 ****
 27  28  29  34  36  39  40  41  42  43  44  45  46 0
 3-21G
 ****


