%nproc=1
%NoSave
%Mem=1900MB
#P OB98/GEN NMR

erre ene a

0 1
  C     -893.550      67.095    -899.230
  O     -893.860      66.250    -898.140
  H     -892.590      66.785    -899.660
  H     -893.450      68.137    -898.900
  H     -894.330      67.014    -900.000
  P     -895.170      66.622    -897.300
  C     -895.530      68.112    -895.180
  O     -894.620      67.584    -896.130
  C     -894.880      68.195    -893.810
  O     -893.650      68.976    -893.890
  C     -895.720      68.865    -892.720
  O     -896.740      68.020    -892.210
  C     -894.650      69.152    -891.710
  O     -894.280      67.936    -891.020
  C     -893.490      69.660    -892.600
  N     -893.520      71.106    -892.800
  C     -892.800      71.889    -891.880
  O     -892.170      71.342    -890.970
  N     -892.800      73.246    -892.020
  C     -893.460      73.809    -892.990
  N     -893.450      75.159    -893.070
  C     -894.230      73.028    -894.000
  C     -894.210      71.689    -893.840
  O     -895.520      65.263    -896.520
  O     -896.320      67.193    -898.090
  H     -893.960      67.317    -891.710
  H     -896.230      65.436    -895.860
  H     -894.760      73.546    -894.790
  H     -894.750      71.076    -894.550
  H     -892.530      69.369    -892.200
  H     -894.960      69.861    -890.950
  H     -896.130      69.805    -893.100
  H     -894.590      67.162    -893.510
  H     -892.970      75.667    -892.330
  H     -896.400      67.445    -895.140
  H     -894.040      75.687    -893.700
  H     -895.870      69.108    -895.490
  P     -898.090      68.743    -891.680
  C     -898.590      70.297    -889.670
  O     -897.770      69.284    -890.200
  O     -899.080      67.496    -891.440
  O     -898.670      69.763    -892.640
  H     -900.000      67.778    -891.630
  H     -898.254      70.549    -888.686
  H     -899.601      69.950    -889.624
  H     -898.538      71.162    -890.297

 6  7  8  9  10  11  12  13  14  15  16  26  30  31  32  33  35 0
 6-311+G(2d,p)
 ****
 37  38 0
 6-311+G(2d,p)
 ****
 1  2  3  4  5  17  18  19  20  21  22  23  24  25 0
 3-21G
 ****
 27  28  29  34  36  39  40  41  42  43  44  45  46 0
 3-21G
 ****


