%nproc=1
%NoSave
%Mem=1900MB
#P OB98/GEN NMR

erre ene a

0 1
  C      -90.421    -185.484    -125.729
  O      -91.123    -186.712    -125.713
  H      -90.115    -185.274    -126.759
  H      -89.526    -185.557    -125.107
  H      -91.058    -184.667    -125.380
  P      -91.812    -187.194    -124.350
  C      -91.119    -188.600    -122.295
  O      -90.688    -187.967    -123.493
  C      -89.937    -188.811    -121.343
  O      -89.082    -189.857    -121.889
  C      -89.071    -187.566    -121.142
  O      -88.627    -187.515    -119.783
  C      -87.889    -187.800    -122.061
  O      -86.717    -187.102    -121.631
  C      -87.751    -189.321    -122.018
  N      -83.303    -189.895    -124.352
  C      -83.593    -189.405    -123.097
  N      -82.547    -188.986    -122.354
  N      -84.802    -189.325    -122.611
  C      -85.757    -189.801    -123.452
  C      -85.593    -190.316    -124.717
  C      -84.252    -190.371    -125.254
  O      -83.937    -190.785    -126.371
  N      -86.807    -190.673    -125.263
  C      -87.688    -190.382    -124.326
  N      -87.104    -189.836    -123.214
  O      -93.096    -187.947    -124.522
  O      -92.035    -185.846    -123.519
  H      -86.001    -187.340    -122.259
  H      -92.970    -185.581    -123.527
  H      -82.357    -189.920    -124.684
  H      -88.762    -190.535    -124.411
  H      -87.153    -189.660    -121.161
  H      -88.137    -187.453    -123.076
  H      -81.579    -189.037    -122.658
  H      -89.613    -186.644    -121.382
  H      -82.722    -188.645    -121.414
  H      -90.323    -189.184    -120.389
  H      -91.562    -189.568    -122.553
  H      -91.881    -187.975    -121.814
  P      -89.474    -186.676    -118.710
  C      -89.596    -184.249    -117.870
  O      -89.175    -185.113    -118.915
  O      -89.381    -187.159    -117.301
  O      -90.979    -186.819    -119.264
  H      -91.590    -186.857    -118.502
  H      -89.344    -183.239    -118.119
  H      -89.106    -184.525    -116.960
  H      -90.655    -184.332    -117.744

 6  7  8  9  10  11  12  13  14  15  26  29  33  34 0
 6-311+G(2d,p)
 ****
 36  38  39  40  41 0
 6-311+G(2d,p)
 ****
 1  2  3  4  5  16  17  18  19  20  21  22  23  24  25 0
 3-21G
 ****
 27  28  30  31  32  35  37  42  43  44  45  46  47 0
 3-21G
 ****
 48  49 0
 3-21G
 ****


