%nproc=1
%NoSave
%Mem=1900MB
#P OB98/GEN NMR

erre ene a

0 1
  C      -21.409    -178.215    -144.618
  O      -22.796    -177.955    -144.512
  H      -20.859    -177.336    -144.270
  H      -21.142    -178.407    -145.662
  H      -21.136    -179.073    -143.999
  P      -23.781    -179.124    -145.002
  C      -24.406    -180.156    -147.300
  O      -23.670    -179.157    -146.605
  C      -24.899    -179.617    -148.639
  O      -26.101    -178.834    -148.463
  C      -23.901    -178.724    -149.365
  O      -22.952    -179.494    -150.085
  C      -24.824    -177.925    -150.274
  O      -25.176    -178.673    -151.456
  C      -26.050    -177.706    -149.377
  N      -28.108    -173.116    -148.965
  C      -28.422    -174.161    -149.807
  N      -29.400    -173.928    -150.714
  N      -27.831    -175.325    -149.777
  C      -26.853    -175.400    -148.842
  C      -26.459    -174.442    -147.937
  C      -27.146    -173.168    -147.963
  O      -26.960    -172.224    -147.200
  N      -25.444    -174.902    -147.137
  C      -25.200    -176.118    -147.584
  N      -26.018    -176.462    -148.631
  O      -25.241    -178.513    -144.750
  O      -23.611    -180.436    -144.315
  H      -25.603    -179.504    -151.192
  H      -25.859    -179.237    -144.544
  H      -28.614    -172.248    -149.024
  H      -24.446    -176.784    -147.187
  H      -26.985    -177.710    -149.949
  H      -24.350    -177.003    -150.619
  H      -29.645    -172.989    -151.001
  H      -23.406    -178.042    -148.660
  H      -29.621    -174.681    -151.351
  H      -25.165    -180.482    -149.262
  H      -25.268    -180.453    -146.691
  H      -23.765    -181.029    -147.460
  P      -21.456    -178.921    -150.195
  C      -20.491    -176.891    -151.515
  O      -21.433    -177.959    -151.481
  O      -20.609    -180.191    -150.674
  O      -20.918    -178.332    -148.936
  H      -19.656    -180.039    -150.515
  H      -20.601    -176.347    -152.430
  H      -19.499    -177.288    -151.454
  H      -20.665    -176.236    -150.687

 6  7  8  9  10  11  12  13  14  15  26  29  33  34 0
 6-311+G(2d,p)
 ****
 36  38  39  40  41 0
 6-311+G(2d,p)
 ****
 1  2  3  4  5  16  17  18  19  20  21  22  23  24  25 0
 3-21G
 ****
 27  28  30  31  32  35  37  42  43  44  45  46  47 0
 3-21G
 ****
 48  49 0
 3-21G
 ****


