%nproc=1
%NoSave
%Mem=1900MB
#P OB98/GEN NMR

erre ene a

0 1
  C     -191.889     662.747     120.399
  O     -190.571     662.568     119.919
  H     -192.269     661.784     120.737
  H     -192.545     663.115     119.602
  H     -191.902     663.445     121.248
  P     -189.736     663.856     119.446
  C     -188.227     664.230     121.493
  O     -188.292     663.755     120.154
  C     -187.217     663.440     122.296
  O     -187.709     662.101     122.480
  C     -185.828     663.335     121.618
  O     -184.827     663.399     122.630
  C     -185.845     661.935     121.011
  O     -184.532     661.408     120.858
  C     -186.711     661.171     121.999
  N     -185.889     656.501     120.193
  C     -185.046     657.364     120.834
  N     -183.750     656.960     121.012
  N     -185.405     658.566     121.283
  C     -186.720     658.842     121.056
  C     -187.654     658.070     120.421
  C     -187.234     656.768     119.931
  O     -187.958     655.954     119.334
  N     -188.868     658.724     120.367
  C     -188.638     659.894     120.961
  N     -187.341     660.010     121.375
  O     -190.425     665.169     119.618
  O     -189.404     663.551     117.909
  H     -184.232     661.138     121.756
  H     -190.007     664.032     117.319
  H     -185.567     655.601     119.860
  H     -189.390     660.649     121.103
  H     -186.142     660.776     122.868
  H     -186.317     661.986     120.022
  H     -183.401     656.061     120.699
  H     -185.660     664.117     120.874
  H     -183.118     657.570     121.488
  H     -187.127     663.881     123.303
  H     -189.213     664.142     121.938
  H     -187.955     665.294     121.492
  P     -183.481     664.197     122.353
  C     -183.565     666.405     123.716
  O     -183.087     665.040     123.662
  O     -183.459     665.005     121.080
  O     -182.352     663.058     122.324
  H     -181.644     663.320     121.735
  H     -183.241     666.860     124.628
  H     -184.634     666.410     123.674
  H     -183.173     666.953     122.885

 6  7  8  9  10  11  12  13  14  15  26  29  33  34 0
 6-311+G(2d,p)
 ****
 36  38  39  40  41 0
 6-311+G(2d,p)
 ****
 1  2  3  4  5  16  17  18  19  20  21  22  23  24  25 0
 3-21G
 ****
 27  28  30  31  32  35  37  42  43  44  45  46  47 0
 3-21G
 ****
 48  49 0
 3-21G
 ****


