%nproc=1
%NoSave
%Mem=1900MB
#P OB98/GEN NMR

erre ene a

0 1
  C     -891.990     251.009     425.512
  O     -891.640     249.678     425.846
  P     -890.160     249.311     426.291
  C     -890.420     248.269     428.627
  O     -890.070     249.436     427.887
  C     -891.410     248.639     429.736
  O     -892.610     249.219     429.154
  C     -891.900     247.435     430.558
  O     -890.910     247.023     431.491
  C     -893.170     248.004     431.190
  O     -892.850     248.802     432.341
  C     -893.700     248.900     430.053
  N     -898.680     247.698     430.116
  C     -897.850     248.172     431.072
  N     -896.530     248.438     430.997
  C     -896.060     248.122     429.781
  C     -896.780     247.576     428.693
  C     -898.140     247.386     428.901
  N     -899.020     246.952     427.902
  N     -895.940     247.370     427.620
  C     -894.740     247.751     428.026
  N     -894.770     248.270     429.287
  O     -889.070     250.020     425.540
  O     -890.060     247.721     426.052
  H     -892.630     248.161     433.060
  H     -889.370     247.535     425.397
  H     -898.310     248.391     432.036
  H     -893.840     247.696     427.456
  H     -894.090     249.852     430.440
  H     -893.860     247.209     431.502
  H     -892.160     246.603     429.886
  H     -890.950     249.383     430.383
  H     -889.510     247.845     429.071
  H     -900.000     246.997     428.119
  H     -898.710     247.031     426.946
  H     -890.860     247.530     427.955
  P     -890.790     245.475     431.887
  C     -888.240     245.405     431.490
  O     -889.510     244.899     431.106
  O     -892.040     244.660     431.752
  O     -890.280     245.527     433.413
  H     -890.650     244.756     433.895
  H     -888.100     246.392     431.050
  H     -887.470     244.722     431.131
  H     -888.170     245.487     432.590
  H     -893.024     251.048     425.241
  H     -891.392     251.339     424.688
  H     -891.818     251.645     426.355

 3  4  5  6  7  8  9  10  11  12  22  25  29  30  31  32 0
 6-311+G(2d,p)
 ****
 33  36  37 0
 6-311+G(2d,p)
 ****
 1  2  13  14  15  16  17  18  19  20  21  23  24  26 0
 3-21G
 ****
 27  28  34  35  38  39  40  41  42  43  44  45  46  47  48 0
 3-21G
 ****


