%nproc=1
%NoSave
%Mem=1900MB
#P OB98/GEN NMR

erre ene a

0 1
  C     -670.464     101.402    -492.170
  O     -671.072     102.659    -491.950
  H     -669.371     101.503    -492.173
  H     -670.751     100.726    -491.359
  H     -670.804     100.983    -493.127
  P     -670.695     103.827    -492.973
  C     -673.184     104.144    -493.627
  O     -671.857     103.869    -494.082
  C     -674.017     102.861    -493.632
  O     -673.587     101.993    -492.554
  C     -675.505     103.074    -493.434
  O     -676.156     103.499    -494.615
  C     -675.937     101.650    -493.034
  O     -676.081     100.850    -494.217
  C     -674.735     101.174    -492.197
  N     -676.271      98.677    -487.969
  C     -676.191      98.287    -489.273
  N     -675.777      99.014    -490.335
  C     -675.416     100.253    -489.969
  C     -675.470     100.795    -488.687
  C     -675.916      99.954    -487.672
  N     -676.019     100.362    -486.349
  N     -675.009     102.093    -488.690
  C     -674.704     102.348    -489.955
  N     -674.948     101.259    -490.770
  O     -669.445     103.225    -493.783
  O     -670.350     105.136    -492.349
  H     -676.726     101.318    -494.787
  H     -668.814     103.952    -493.984
  H     -676.461      97.260    -489.479
  H     -674.306     103.290    -490.311
  H     -674.472     100.128    -492.445
  H     -676.887     101.630    -492.504
  H     -675.704     103.750    -492.604
  H     -673.812     102.326    -494.585
  H     -673.647     104.872    -494.300
  H     -676.160      99.652    -485.639
  H     -675.736     101.308    -486.120
  H     -673.129     104.565    -492.621
  P     -676.530     105.053    -494.747
  C     -675.316     105.550    -496.992
  O     -675.324     105.725    -495.580
  O     -676.300     105.613    -493.257
  O     -677.905     105.340    -495.232
  H     -676.830     106.398    -493.092
  H     -674.464     106.046    -497.408
  H     -676.210     105.966    -497.408
  H     -675.268     104.506    -497.222

 6  7  8  9  10  11  12  13  14  15  25  28  32  33  34  35 0
 6-311+G(2d,p)
 ****
 36  39  40 0
 6-311+G(2d,p)
 ****
 1  2  3  4  5  16  17  18  19  20  21  22  23  24 0
 3-21G
 ****
 26  27  29  30  31  37  38  41  42  43  44  45  46  47  48 0
 3-21G
 ****


