%nproc=1
%NoSave
%Mem=1900MB
#P OB98/GEN NMR

erre ene a

0 1
  C      -60.644      53.645     270.297
  O      -59.831      52.818     269.488
  H      -61.047      53.043     271.117
  H      -61.478      54.042     269.714
  H      -60.061      54.467     270.723
  P      -58.992      53.489     268.298
  C      -60.308      51.841     266.809
  O      -59.762      53.149     266.935
  C      -61.667      51.910     266.118
  O      -62.496      52.914     266.746
  C      -61.590      52.299     264.647
  O      -61.161      51.213     263.851
  C      -63.020      52.748     264.393
  O      -63.881      51.622     264.168
  C      -63.369      53.452     265.725
  N      -63.252      54.909     265.645
  C      -64.188      55.562     264.850
  O      -65.058      54.973     264.206
  N      -64.072      56.926     264.789
  C      -63.070      57.668     265.344
  O      -62.960      58.881     265.186
  C      -62.096      56.923     266.153
  C      -62.231      55.600     266.266
  O      -57.529      53.189     268.290
  O      -59.266      55.058     268.482
  H      -63.616      51.239     263.309
  H      -58.476      55.481     268.868
  H      -64.731      57.414     264.207
  H      -61.295      57.480     266.621
  H      -61.519      55.031     266.854
  H      -64.394      53.205     266.027
  H      -63.102      53.396     263.520
  H      -60.921      53.159     264.520
  H      -62.165      50.938     266.238
  H      -60.431      51.413     267.810
  H      -59.611      51.217     266.239
  P      -59.699      51.228     263.201
  C      -60.804      51.298     260.881
  O      -59.818      51.872     261.739
  O      -58.960      49.933     263.262
  O      -58.925      52.358     264.030
  H      -58.157      51.963     264.480
  H      -60.794      51.803     259.938
  H      -61.770      51.399     261.330
  H      -60.587      50.261     260.732

 6  7  8  9  10  11  12  13  14  15  16  26  31  32  33  34  35 0
 6-311+G(2d,p)
 ****
 36  37 0
 6-311+G(2d,p)
 ****
 1  2  3  4  5  17  18  19  20  21  22  23  24  25 0
 3-21G
 ****
 27  28  29  30  38  39  40  41  42  43  44  45 0
 3-21G
 ****


