%nproc=1
%NoSave
%Mem=1900MB
#P OB98/GEN NMR

erre ene a

0 1
  C      233.030      42.141     -31.209
  O      232.084      43.138     -30.881
  H      232.854      41.269     -30.574
  H      234.042      42.508     -31.024
  H      232.930      41.838     -32.254
  P      231.990      44.446     -31.801
  C      234.096      45.589     -30.848
  O      233.486      44.993     -31.985
  C      235.545      45.948     -31.163
  O      236.263      44.779     -31.608
  C      235.700      46.978     -32.277
  O      235.393      48.278     -31.810
  C      237.157      46.762     -32.660
  O      238.033      47.430     -31.740
  C      237.285      45.225     -32.529
  N      237.178      44.527     -33.808
  C      238.221      43.667     -34.134
  O      239.213      43.513     -33.422
  N      238.096      42.998     -35.324
  C      237.093      43.167     -36.234
  O      237.055      42.581     -37.312
  C      236.036      44.114     -35.852
  C      236.125      44.738     -34.676
  O      230.996      45.474     -31.371
  O      231.642      43.862     -33.251
  H      238.945      47.242     -32.038
  H      230.688      43.964     -33.426
  H      238.848      42.380     -35.582
  H      235.227      44.277     -36.552
  H      235.356      45.444     -34.380
  H      238.249      44.963     -32.077
  H      237.392      47.145     -33.653
  H      235.069      46.711     -33.132
  H      236.019      46.302     -30.238
  H      234.071      44.872     -30.018
  H      233.527      46.480     -30.567
  P      234.929      49.423     -32.825
  C      237.286      50.425     -32.874
  O      236.225      49.890     -33.653
  O      234.147      50.538     -32.215
  O      234.063      48.642     -33.921
  H      233.112      48.832     -33.788
  H      238.095      50.703     -33.517
  H      237.623      49.688     -32.176
  H      236.939      51.287     -32.343

 6  7  8  9  10  11  12  13  14  15  16  26  31  32  33  34  35 0
 6-311+G(2d,p)
 ****
 36  37 0
 6-311+G(2d,p)
 ****
 1  2  3  4  5  17  18  19  20  21  22  23  24  25 0
 3-21G
 ****
 27  28  29  30  38  39  40  41  42  43  44  45 0
 3-21G
 ****


