%nproc=1
%NoSave
%Mem=1900MB
#P OB98/GEN NMR

erre ene a

0 1
  C     -111.101     197.343     119.870
  O     -110.245     198.450     120.111
  H     -111.817     197.622     119.104
  H     -111.638     197.089     120.790
  H     -110.519     196.481     119.522
  P     -108.989     198.195     121.080
  C     -107.126     198.707     119.304
  O     -107.789     197.749     120.109
  C     -105.725     198.207     118.932
  O     -105.039     197.809     120.148
  C     -105.722     197.014     117.977
  O     -104.611     197.148     117.080
  C     -105.497     195.814     118.901
  O     -104.930     194.718     118.202
  C     -104.599     196.442     119.980
  N     -104.662     195.700     121.248
  C     -103.947     194.519     121.326
  O     -103.311     194.111     120.336
  N     -103.989     193.782     122.481
  C     -104.757     194.164     123.446
  N     -104.778     193.380     124.556
  C     -105.579     195.390     123.407
  C     -105.469     196.115     122.294
  O     -109.409     196.837     121.816
  O     -108.686     199.337     121.988
  H     -104.751     194.005     118.850
  H     -109.824     196.189     121.221
  H     -106.208     195.662     124.230
  H     -106.034     197.036     122.174
  H     -103.551     196.468     119.657
  H     -106.443     195.493     119.334
  H     -106.649     196.909     117.406
  H     -105.160     199.053     118.520
  H     -104.215     192.539     124.555
  H     -107.038     199.661     119.834
  H     -105.372     193.558     125.361
  H     -107.720     198.862     118.403
  P     -104.515     198.472     116.172
  C     -101.946     198.675     116.077
  O     -103.165     199.251     116.532
  O     -105.734     199.310     116.106
  O     -104.162     197.864     114.716
  H     -104.661     198.382     114.050
  H     -101.125     199.290     116.382
  H     -101.961     198.605     115.009
  H     -101.835     197.697     116.497

 6  7  8  9  10  11  12  13  14  15  16  26  30  31  32  33  35 0
 6-311+G(2d,p)
 ****
 37  38 0
 6-311+G(2d,p)
 ****
 1  2  3  4  5  17  18  19  20  21  22  23  24  25 0
 3-21G
 ****
 27  28  29  34  36  39  40  41  42  43  44  45  46 0
 3-21G
 ****


