%nproc=1
%NoSave
%Mem=1900MB
#P OB98/GEN NMR

erre ene a

0 1
  C      -68.100    -151.194    -159.774
  O      -68.262    -150.078    -160.630
  H      -68.984    -151.277    -159.136
  H      -67.219    -151.056    -159.141
  H      -67.999    -152.110    -160.362
  P      -67.049    -149.768    -161.636
  C      -64.551    -149.134    -161.329
  O      -65.832    -149.255    -160.722
  C      -63.716    -148.086    -160.602
  O      -64.222    -146.757    -160.866
  C      -63.683    -148.244    -159.088
  O      -62.718    -149.208    -158.694
  C      -63.319    -146.834    -158.647
  O      -61.901    -146.595    -158.761
  C      -64.103    -145.972    -159.649
  N      -66.875    -142.089    -158.002
  C      -65.573    -142.127    -158.451
  N      -64.887    -140.960    -158.405
  N      -64.986    -143.206    -158.896
  C      -65.782    -144.301    -158.852
  C      -67.093    -144.389    -158.445
  C      -67.739    -143.179    -157.985
  O      -68.910    -143.066    -157.635
  N      -67.564    -145.673    -158.566
  C      -66.531    -146.362    -159.007
  N      -65.419    -145.577    -159.180
  O      -67.524    -148.438    -162.394
  O      -66.720    -150.859    -162.598
  H      -61.567    -147.031    -159.562
  H      -67.154    -148.436    -163.295
  H      -67.277    -141.223    -157.689
  H      -66.537    -147.423    -159.212
  H      -63.567    -145.051    -159.907
  H      -63.582    -146.657    -157.601
  H      -65.160    -140.209    -157.784
  H      -64.678    -148.501    -158.702
  H      -63.926    -140.984    -158.712
  H      -62.699    -148.132    -161.016
  H      -64.680    -148.831    -162.376
  H      -64.045    -150.105    -161.298
  P      -62.982    -150.013    -157.330
  C      -63.907    -149.258    -155.014
  O      -63.169    -148.909    -156.181
  O      -61.552    -150.650    -156.996
  O      -64.050    -151.049    -157.413
  H      -61.651    -151.376    -156.346
  H      -63.941    -148.420    -154.349
  H      -63.432    -150.082    -154.525
  H      -64.903    -149.534    -155.291

 6  7  8  9  10  11  12  13  14  15  26  29  33  34 0
 6-311+G(2d,p)
 ****
 36  38  39  40  41 0
 6-311+G(2d,p)
 ****
 1  2  3  4  5  16  17  18  19  20  21  22  23  24  25 0
 3-21G
 ****
 27  28  30  31  32  35  37  42  43  44  45  46  47 0
 3-21G
 ****
 48  49 0
 3-21G
 ****


