%nproc=1
%NoSave
%Mem=1900MB
#P OB98/GEN NMR

erre ene a

0 1
  C     -120.081    -170.424    -149.311
  O     -119.228    -171.519    -149.028
  P     -119.562    -172.937    -149.697
  C     -117.438    -173.851    -148.439
  O     -118.783    -174.049    -148.827
  C     -116.936    -175.048    -147.635
  O     -117.531    -175.008    -146.302
  C     -117.279    -176.418    -148.239
  O     -116.183    -177.298    -147.959
  C     -118.519    -176.831    -147.469
  O     -118.733    -178.231    -147.488
  C     -118.181    -176.272    -146.074
  N     -119.357    -176.098    -145.219
  C     -119.645    -177.105    -144.304
  O     -118.990    -178.134    -144.186
  N     -120.757    -176.893    -143.525
  C     -121.622    -175.841    -143.618
  O     -122.614    -175.713    -142.909
  C     -121.289    -174.832    -144.636
  C     -120.183    -175.001    -145.366
  O     -118.723    -172.852    -151.051
  O     -121.021    -173.197    -149.872
  H     -117.885    -172.374    -150.951
  H     -119.541    -178.420    -146.971
  H     -120.966    -177.592    -142.824
  H     -121.956    -173.987    -144.754
  H     -119.921    -174.269    -146.126
  H     -117.456    -176.923    -145.572
  H     -119.402    -176.338    -147.889
  H     -117.445    -176.360    -149.324
  H     -115.851    -174.949    -147.505
  H     -117.367    -172.944    -147.822
  H     -116.825    -173.694    -149.331
  P     -115.610    -178.207    -149.159
  C     -113.183    -178.464    -148.220
  O     -114.402    -179.072    -148.561
  O     -114.853    -177.085    -150.026
  O     -116.645    -178.941    -149.941
  H     -114.281    -176.512    -149.487
  H     -112.633    -179.124    -147.539
  H     -113.335    -177.501    -147.715
  H     -112.577    -178.306    -149.113
  H     -119.729    -169.555    -148.795
  H     -121.075    -170.653    -148.987
  H     -120.083    -170.237    -150.364

 3  4  5  6  7  8  9  10  11  12  13  24  28  29  30  31  32 0
 6-311+G(2d,p)
 ****
 33  34 0
 6-311+G(2d,p)
 ****
 1  2  14  15  16  17  18  19  20  21  22  23  25  26  27 0
 3-21G
 ****
 35  36  37  38  39  40  41  42  43  44  45 0
 3-21G
 ****


