%nproc=1
%NoSave
%Mem=1900MB
#P OB98/GEN NMR

erre ene a

0 1
  C      -71.357      -7.919    -123.795
  O      -70.761      -9.030    -123.159
  H      -72.298      -7.686    -123.291
  H      -71.570      -8.166    -124.838
  H      -70.703      -7.043    -123.745
  P      -69.236      -9.354    -123.529
  C      -68.761     -10.588    -121.300
  O      -68.823     -10.678    -122.714
  C      -68.293     -11.916    -120.703
  O      -69.414     -12.838    -120.684
  C      -67.155     -12.580    -121.487
  O      -66.246     -13.185    -120.562
  C      -67.861     -13.659    -122.289
  O      -66.997     -14.739    -122.637
  C      -68.991     -14.048    -121.343
  N      -70.624     -18.340    -123.419
  C      -69.485     -18.081    -122.681
  N      -68.650     -19.122    -122.469
  N      -69.190     -16.905    -122.193
  C      -70.133     -15.968    -122.451
  C      -71.298     -16.097    -123.173
  C      -71.597     -17.397    -123.732
  O      -72.578     -17.682    -124.412
  N      -71.975     -14.904    -123.241
  C      -71.219     -14.058    -122.564
  N      -70.097     -14.658    -122.060
  O      -68.425      -8.190    -122.786
  O      -68.924      -9.389    -124.988
  H      -67.563     -15.500    -122.890
  H      -67.982      -7.624    -123.445
  H      -70.795     -19.261    -123.782
  H      -71.433     -13.009    -122.416
  H      -68.667     -14.762    -120.576
  H      -68.258     -13.228    -123.218
  H      -68.838     -20.064    -122.774
  H      -66.611     -11.883    -122.127
  H      -67.826     -18.965    -121.899
  H      -68.003     -11.747    -119.659
  H      -69.758     -10.348    -120.914
  H      -68.068      -9.789    -121.017
  P      -64.678     -12.998    -120.854
  C      -63.988     -12.336    -118.447
  O      -63.874     -13.288    -119.494
  O      -64.531     -11.416    -121.049
  O      -64.195     -13.744    -122.052
  H      -64.374     -11.211    -121.990
  H      -63.405     -12.656    -117.609
  H      -65.014     -12.248    -118.155
  H      -63.632     -11.386    -118.788

 6  7  8  9  10  11  12  13  14  15  26  29  33  34 0
 6-311+G(2d,p)
 ****
 36  38  39  40  41 0
 6-311+G(2d,p)
 ****
 1  2  3  4  5  16  17  18  19  20  21  22  23  24  25 0
 3-21G
 ****
 27  28  30  31  32  35  37  42  43  44  45  46  47 0
 3-21G
 ****
 48  49 0
 3-21G
 ****


