%nproc=1
%NoSave
%Mem=1900MB
#P OB98/GEN NMR

erre ene a

0 1
  C       45.861     778.148     403.674
  O       44.985     779.277     403.787
  P       43.604     779.076     404.573
  C       42.287     779.110     402.323
  O       42.525     778.457     403.565
  C       41.455     778.219     401.390
  O       42.167     777.037     400.996
  C       40.163     777.734     402.010
  O       39.137     778.715     401.937
  C       39.829     776.543     401.116
  O       39.228     777.017     399.887
  C       41.214     775.960     400.834
  N       40.356     771.047     402.000
  C       39.803     771.862     401.073
  N       40.070     773.166     400.836
  C       41.035     773.605     401.663
  C       41.687     772.894     402.649
  C       41.325     771.547     402.811
  N       41.894     770.720     403.745
  N       42.620     773.683     403.295
  C       42.530     774.859     402.703
  N       41.586     774.866     401.705
  O       43.083     780.578     404.787
  O       43.748     778.361     405.879
  H       39.861     777.658     399.495
  H       42.618     780.649     405.642
  H       39.040     771.409     400.447
  H       43.134     775.731     402.943
  H       41.317     775.600     399.796
  H       39.116     775.852     401.574
  H       40.324     777.386     403.051
  H       41.233     778.808     400.478
  H       43.238     779.366     401.846
  H       41.596     769.749     403.781
  H       42.634     771.074     404.332
  H       41.774     780.067     402.509
  P       38.653     779.389     403.310
  C       37.017     777.564     404.154
  O       38.277     778.167     404.286
  O       37.253     780.034     402.919
  O       39.601     780.393     403.863
  H       37.083     780.828     403.466
  H       37.031     776.587     404.656
  H       36.747     777.400     403.099
  H       36.252     778.189     404.625
  H       46.737     778.430     403.128
  H       45.358     777.357     403.158
  H       46.141     777.815     404.651

 3  4  5  6  7  8  9  10  11  12  22  25  29  30  31  32 0
 6-311+G(2d,p)
 ****
 33  36  37 0
 6-311+G(2d,p)
 ****
 1  2  13  14  15  16  17  18  19  20  21  23  24  26 0
 3-21G
 ****
 27  28  34  35  38  39  40  41  42  43  44  45  46  47  48 0
 3-21G
 ****


