%nproc=1
%NoSave
%Mem=1900MB
#P OB98/GEN NMR

erre ene a

0 1
  C      340.119    -158.723      75.250
  O      340.318    -157.327      75.082
  P      339.223    -156.521      74.223
  C      340.767    -154.438      74.340
  O      340.029    -155.327      73.512
  C      341.903    -153.791      73.554
  O      342.861    -154.790      73.168
  C      341.468    -153.117      72.260
  O      340.930    -151.827      72.489
  C      342.794    -153.038      71.514
  O      343.536    -151.892      71.972
  C      343.491    -154.341      71.940
  N      344.865    -155.858      67.309
  C      345.178    -154.697      67.986
  N      345.993    -153.826      67.352
  N      344.731    -154.408      69.184
  C      343.958    -155.387      69.710
  C      343.576    -156.582      69.139
  C      344.039    -156.863      67.793
  O      343.742    -157.846      67.117
  N      342.798    -157.322      69.991
  C      342.739    -156.602      71.092
  N      343.403    -155.399      70.961
  O      338.363    -155.767      75.346
  O      338.363    -157.361      73.341
  H      342.927    -151.128      71.940
  H      337.465    -155.577      75.010
  H      345.256    -156.036      66.398
  H      342.235    -156.897      71.998
  H      344.550    -154.166      72.170
  H      342.668    -152.927      70.432
  H      346.478    -154.051      66.492
  H      340.767    -153.752      71.701
  H      346.266    -152.988      67.850
  H      342.406    -153.069      74.210
  H      341.194    -154.997      75.183
  H      340.089    -153.676      74.738
  P      339.474    -151.532      71.869
  C      339.489    -149.147      72.906
  O      339.387    -149.937      71.736
  O      338.485    -151.875      73.082
  O      339.157    -152.318      70.637
  H      337.604    -152.125      72.732
  H      340.200    -149.581      73.616
  H      338.507    -149.068      73.375
  H      339.837    -148.149      72.628
  H      340.916    -159.129      75.837
  H      340.104    -159.199      74.292
  H      339.187    -158.893      75.747

 3  4  5  6  7  8  9  10  11  12  23  26  30  31  33  0
 6-311+G(2d,p)
 ****
 35  36  37  38 0
 6-311+G(2d,p)
 ****
 1  2  13  14  15  16  17  18  19  20  21  22  24  25  27  28  29 0
 3-21G
 ****
 32  34  39  40  41  42  43  44  45  46  47  48  49 0
 3-21G
 ****


