%nproc=1
%NoSave
%Mem=1900MB
#P OB98/GEN NMR

erre ene a

0 1
  C      -62.155    -210.833    -135.452
  O      -61.230    -209.765    -135.388
  P      -61.550    -208.375    -136.114
  C      -61.760    -207.472    -138.510
  O      -61.474    -208.606    -137.699
  C      -60.724    -207.336    -139.623
  O      -61.011    -208.249    -140.707
  C      -60.682    -205.960    -140.266
  O      -60.085    -204.995    -139.421
  C      -59.913    -206.260    -141.546
  O      -58.500    -206.312    -141.293
  C      -60.445    -207.664    -141.906
  N      -61.414    -207.629    -142.989
  C      -61.196    -208.529    -144.038
  O      -60.189    -209.235    -144.054
  N      -62.126    -208.595    -145.046
  C      -63.111    -207.754    -145.071
  N      -64.031    -207.907    -146.060
  C      -63.284    -206.684    -144.068
  C      -62.420    -206.694    -143.053
  O      -60.773    -207.202    -135.615
  O      -63.118    -208.159    -135.865
  H      -63.261    -207.258    -135.517
  H      -58.230    -205.406    -141.044
  H      -64.083    -205.966    -144.171
  H      -62.485    -205.958    -142.259
  H      -59.616    -208.321    -142.194
  H      -60.075    -205.502    -142.319
  H      -61.701    -205.641    -140.521
  H      -59.742    -207.595    -139.206
  H      -63.891    -208.663    -146.719
  H      -61.745    -206.578    -137.881
  H      -64.976    -207.537    -145.988
  H      -62.766    -207.577    -138.932
  P      -60.513    -203.466    -139.648
  C      -60.861    -202.083    -141.809
  O      -60.098    -203.068    -141.141
  O      -59.479    -202.653    -138.735
  O      -61.926    -203.155    -139.276
  H      -59.926    -201.883    -138.339
  H      -60.269    -201.682    -142.636
  H      -61.131    -201.263    -141.138
  H      -61.769    -202.538    -142.214
  H      -61.769    -211.672    -134.911
  H      -62.311    -211.109    -136.474
  H      -63.084    -210.526    -135.019

 3  4  5  6  7  8  9  10  11  12  13  24  27  28  29  30  32 0
 6-311+G(2d,p)
 ****
 34  35 0
 6-311+G(2d,p)
 ****
 1  2  14  15  16  17  18  19  20  21  22  23  25  26 0
 3-21G
 ****
 31  33  36  37  38  39  40  41  42  43  44  45  46 0
 3-21G
 ****


