%nproc=1
%NoSave
%Mem=1900MB
#P OB98/GEN NMR

erre ene a

0 1
  C     -132.421     166.254      39.378
  O     -132.714     165.852      38.055
  P     -134.082     166.281      37.343
  C     -135.758     165.918      39.249
  O     -135.273     165.435      38.004
  C     -136.448     164.810      40.047
  O     -136.916     165.349      41.310
  C     -137.651     164.178      39.330
  O     -137.633     162.777      39.631
  C     -138.837     164.850      39.994
  O     -140.032     164.093      39.865
  C     -138.312     165.008      41.425
  N     -139.045     166.012      42.180
  C     -140.372     165.721      42.500
  O     -140.914     164.714      42.039
  N     -141.054     166.584      43.324
  C     -140.519     167.725      43.634
  N     -141.197     168.520      44.506
  C     -139.215     168.173      43.103
  C     -138.520     167.263      42.427
  O     -134.054     166.252      35.850
  O     -134.356     167.767      37.879
  H     -134.494     168.362      37.116
  H     -140.790     164.643      40.155
  H     -138.869     169.180      43.287
  H     -137.541     167.483      42.020
  H     -138.370     164.052      41.964
  H     -139.005     165.833      39.536
  H     -137.619     164.315      38.246
  H     -135.700     164.042      40.276
  H     -142.068     168.164      44.880
  H     -136.482     166.713      39.046
  H     -140.736     169.254      45.043
  H     -134.935     166.354      39.826
  P     -137.367     161.743      38.430
  C     -139.181     162.565      36.762
  O     -138.747     161.543      37.638
  O     -137.234     160.352      39.225
  O     -136.141     161.975      37.606
  H     -136.698     159.734      38.695
  H     -140.161     162.290      36.368
  H     -138.484     162.670      35.926
  H     -139.270     163.516      37.293
  H     -131.466     165.866      39.665
  H     -133.173     165.878      40.040
  H     -132.402     167.323      39.430

 3  4  5  6  7  8  9  10  11  12  13  24  27  28  29  30  32 0
 6-311+G(2d,p)
 ****
 34  35 0
 6-311+G(2d,p)
 ****
 1  2  14  15  16  17  18  19  20  21  22  23  25  26 0
 3-21G
 ****
 31  33  36  37  38  39  40  41  42  43  44  45  46 0
 3-21G
 ****


