%nproc=1
%NoSave
%Mem=1900MB
#P OB98/GEN NMR

erre ene a

0 1
  C     -184.997     -75.663     450.478
  O     -183.725     -75.387     449.914
  P     -183.520     -75.311     448.324
  C     -182.741     -77.768     448.453
  O     -183.597     -76.831     447.819
  C     -183.517     -79.046     448.780
  O     -184.787     -78.699     449.369
  C     -183.845     -79.910     447.566
  O     -182.703     -80.632     447.132
  C     -184.993     -80.753     448.115
  O     -184.483     -81.826     448.924
  C     -185.739     -79.735     449.007
  N     -186.917     -79.165     448.356
  C     -188.118     -79.856     448.539
  O     -188.168     -80.880     449.218
  N     -189.259     -79.347     447.970
  C     -189.204     -78.257     447.262
  N     -190.376     -77.762     446.778
  C     -187.950     -77.533     447.001
  C     -186.856     -78.034     447.575
  O     -182.305     -74.568     447.880
  O     -184.889     -74.691     447.773
  H     -184.026     -82.441     448.316
  H     -184.896     -73.704     447.741
  H     -187.951     -76.639     446.392
  H     -185.897     -77.547     447.451
  H     -186.045     -80.209     449.948
  H     -185.625     -81.191     447.334
  H     -184.208     -79.286     446.741
  H     -182.942     -79.626     449.517
  H     -191.226     -78.192     447.126
  H     -182.370     -77.330     449.389
  H     -190.464     -76.801     446.480
  H     -181.889     -77.983     447.800
  P     -182.051     -80.223     445.726
  C     -181.849     -82.779     445.313
  O     -182.200     -81.510     444.781
  O     -180.489     -80.146     446.055
  O     -182.573     -78.946     445.155
  H     -180.211     -79.218     446.169
  H     -182.227     -83.554     444.646
  H     -182.295     -82.918     446.306
  H     -180.763     -82.868     445.378
  H     -184.920     -75.669     451.545
  H     -185.338     -76.619     450.139
  H     -185.693     -74.909     450.175

 3  4  5  6  7  8  9  10  11  12  13  23  27  28  29  30  32 0
 6-311+G(2d,p)
 ****
 34  35 0
 6-311+G(2d,p)
 ****
 1  2  14  15  16  17  18  19  20  21  22  24  25  26 0
 3-21G
 ****
 31  33  36  37  38  39  40  41  42  43  44  45  46 0
 3-21G
 ****


