%nproc=1
%NoSave
%Mem=1900MB
#P OB98/GEN NMR

erre ene a

0 1
  C       23.650      36.591     -37.966
  O       24.405      35.916     -36.982
  H       23.351      37.565     -37.567
  H       22.749      36.023     -38.208
  H       24.243      36.751     -38.870
  P       25.110      34.529     -37.368
  C       25.370      34.438     -34.806
  O       25.890      34.023     -36.063
  C       26.174      33.801     -33.676
  O       26.120      32.361     -33.782
  C       27.655      34.154     -33.700
  O       27.884      35.470     -33.236
  C       28.225      33.052     -32.824
  O       28.081      33.368     -31.434
  C       27.340      31.845     -33.205
  N       28.019      30.937     -34.129
  C       29.188      30.346     -33.662
  O       29.648      30.544     -32.540
  N       29.855      29.556     -34.560
  C       29.546      29.423     -35.884
  O       30.304      28.911     -36.702
  C       28.269      30.017     -36.304
  C       27.580      30.747     -35.425
  O       25.914      34.541     -38.625
  O       23.884      33.501     -37.470
  H       23.670      33.351     -38.410
  H       27.131      33.238     -31.229
  H       30.728      29.158     -34.242
  H       27.953      29.872     -37.329
  H       26.651      31.225     -35.720
  H       27.054      31.282     -32.308
  H       29.287      32.893     -33.020
  H       28.047      34.038     -34.717
  H       25.718      34.090     -32.721
  H       24.325      34.116     -34.735
  H       25.412      35.530     -34.745
  P       28.728      36.504     -34.121
  C       30.679      36.738     -32.465
  O       29.614      37.404     -33.135
  O       27.939      37.270     -35.130
  O       29.827      35.587     -34.842
  H       29.822      35.784     -35.799
  H       31.197      37.434     -31.839
  H       31.358      36.335     -33.187
  H       30.283      35.945     -31.866

 6  7  8  9  10  11  12  13  14  15  16  27  31  32  33  34  35 0
 6-311+G(2d,p)
 ****
 36  37 0
 6-311+G(2d,p)
 ****
 1  2  3  4  5  17  18  19  20  21  22  23  24  25 0
 3-21G
 ****
 26  28  29  30  38  39  40  41  42  43  44  45 0
 3-21G
 ****


