%nproc=1
%NoSave
%Mem=1900MB
#P OB98/GEN NMR

erre ene a

0 1
  C      -75.625     -53.726     -35.020
  O      -74.444     -54.517     -34.922
  P      -74.625     -56.093     -34.694
  C      -72.346     -56.790     -35.789
  O      -73.164     -56.750     -34.635
  C      -70.876     -57.056     -35.415
  O      -70.333     -55.855     -34.808
  C      -70.654     -58.162     -34.390
  O      -69.289     -58.582     -34.458
  C      -70.892     -57.429     -33.088
  O      -70.347     -58.138     -31.978
  C      -70.271     -56.043     -33.371
  N      -70.965     -54.932     -32.682
  C      -70.238     -53.782     -32.383
  O      -69.048     -53.631     -32.655
  N      -70.915     -52.800     -31.714
  C      -72.228     -52.832     -31.358
  O      -72.762     -51.962     -30.682
  C      -72.982     -54.005     -31.819
  C      -72.327     -54.988     -32.439
  O      -75.232     -56.605     -36.081
  O      -75.501     -56.435     -33.536
  H      -70.312     -57.499     -31.229
  H      -76.182     -56.802     -35.981
  H      -70.383     -51.989     -31.431
  H      -74.045     -54.037     -31.614
  H      -72.866     -55.872     -32.770
  H      -69.219     -56.011     -33.060
  H      -71.968     -57.329     -32.913
  H      -71.316     -59.025     -34.502
  H      -70.303     -57.252     -36.328
  H      -72.434     -55.851     -36.340
  H      -72.698     -57.581     -36.462
  P      -68.971     -60.141     -34.260
  C      -67.449     -60.216     -36.330
  O      -67.536     -60.396     -34.930
  O      -70.051     -61.086     -34.666
  O      -68.647     -60.244     -32.693
  H      -68.731     -61.170     -32.401
  H      -66.433     -59.903     -36.583
  H      -68.153     -59.454     -36.681
  H      -67.665     -61.164     -36.829
  H      -75.356     -52.701     -35.170
  H      -76.192     -53.818     -34.117
  H      -76.214     -54.065     -35.846

 3  4  5  6  7  8  9  10  11  12  13  23  28  29  30  31  32 0
 6-311+G(2d,p)
 ****
 33  34 0
 6-311+G(2d,p)
 ****
 1  2  14  15  16  17  18  19  20  21  22  24  25  26  27 0
 3-21G
 ****
 35  36  37  38  39  40  41  42  43  44  45 0
 3-21G
 ****


