%nproc=1
%NoSave
%Mem=1900MB
#P OB98/GEN NMR

erre ene a

0 1
  C     -163.986     104.480     338.475
  O     -164.729     103.573     339.290
  P     -164.732     102.038     338.819
  C     -165.455      99.773     339.866
  O     -165.564     101.187     339.899
  C     -165.994      99.153     341.161
  O     -165.160      99.465     342.302
  C     -167.393      99.629     341.523
  O     -168.358      98.925     340.749
  C     -167.464      99.304     343.013
  O     -167.828      97.930     343.226
  C     -166.016      99.556     343.473
  N     -167.198     102.429     347.485
  C     -167.742     101.219     347.066
  N     -168.717     100.702     347.837
  N     -167.357     100.596     345.986
  C     -166.364     101.236     345.312
  C     -165.730     102.408     345.645
  C     -166.166     103.106     346.840
  O     -165.704     104.156     347.265
  N     -164.734     102.711     344.745
  C     -164.856     101.786     343.810
  N     -165.786     100.825     344.143
  O     -163.221     101.573     339.041
  O     -165.158     101.853     337.401
  H     -167.109      97.355     342.903
  H     -162.782     101.439     338.180
  H     -167.539     102.876     348.315
  H     -164.279     101.743     342.907
  H     -165.676      98.780     344.169
  H     -168.213      99.908     343.520
  H     -169.064     101.138     348.691
  H     -167.474     100.716     341.364
  H     -169.126      99.821     347.557
  H     -165.989      98.061     341.031
  H     -164.412      99.481     339.718
  H     -166.012      99.399     338.998
  P     -169.451      99.784     339.955
  C     -170.562      99.618     337.612
  O     -169.837      98.964     338.628
  O     -168.599     101.032     339.406
  O     -170.604     100.244     340.782
  H     -169.108     101.855     339.541
  H     -170.297      99.181     336.647
  H     -170.342     100.696     337.578
  H     -171.635      99.472     337.782
  H     -164.056     105.466     338.884
  H     -164.385     104.476     337.482
  H     -162.960     104.177     338.448

 3  4  5  6  7  8  9  10  11  12  23  26  30  31 0
 6-311+G(2d,p)
 ****
 33  35  36  37  38 0
 6-311+G(2d,p)
 ****
 1  2  13  14  15  16  17  18  19  20  21  22  24  25 0
 3-21G
 ****
 27  28  29  32  34  39  40  41  42  43  44  45  46  47  48  49 0
 3-21G
 ****


