%nproc=1
%NoSave
%Mem=1900MB
#P OB98/GEN NMR

erre ene a

0 1
  C     -151.247     406.177     483.359
  O     -149.903     406.620     483.607
  P     -149.623     408.182     483.830
  C     -149.650     409.570     481.619
  O     -150.387     409.058     482.724
  C     -150.514     410.522     480.774
  O     -151.125     411.539     481.625
  C     -149.744     411.269     479.674
  O     -150.645     411.462     478.575
  C     -149.431     412.601     480.334
  O     -149.122     413.628     479.405
  C     -150.737     412.829     481.110
  N     -150.636     413.816     482.186
  C     -151.547     414.861     482.196
  O     -152.405     415.054     481.332
  N     -151.438     415.736     483.254
  C     -150.498     415.689     484.242
  O     -150.431     416.519     485.142
  C     -149.543     414.577     484.156
  C     -149.651     413.710     483.150
  O     -148.091     408.319     483.370
  O     -149.783     408.666     485.237
  H     -148.739     414.370     479.903
  H     -147.596     408.853     484.024
  H     -152.105     416.493     483.286
  H     -148.780     414.504     484.928
  H     -148.967     412.870     483.080
  H     -151.529     413.137     480.411
  H     -148.578     412.487     481.006
  H     -148.845     410.735     479.340
  H     -151.334     409.939     480.338
  H     -149.323     408.738     480.993
  H     -148.768     410.092     481.990
  P     -150.051     411.428     477.081
  C     -149.673     413.987     476.669
  O     -149.109     412.714     476.920
  O     -151.361     411.814     476.241
  O     -149.459     410.114     476.679
  H     -151.845     412.565     476.632
  H     -150.576     414.142     477.267
  H     -149.919     414.069     475.606
  H     -148.943     414.751     476.932
  H     -151.255     405.114     483.234
  H     -151.618     406.643     482.470
  H     -151.869     406.443     484.188

 3  4  5  6  7  8  9  10  11  12  13  23  28  29  30  31  32 0
 6-311+G(2d,p)
 ****
 33  34 0
 6-311+G(2d,p)
 ****
 1  2  14  15  16  17  18  19  20  21  22  24  25  26 0
 3-21G
 ****
 27  35  36  37  38  39  40  41  42  43  44  45 0
 3-21G
 ****


