%nproc=1
%NoSave
%Mem=1900MB
#P OB98/GEN NMR

erre ene a

0 1
  C      335.872     280.162     -32.778
  O      335.984     281.505     -33.200
  H      334.889     280.017     -32.319
  H      336.641     279.935     -32.037
  H      335.964     279.487     -33.633
  P      337.361     281.931     -33.901
  C      338.578     282.459     -31.671
  O      338.521     281.633     -32.827
  C      340.023     282.622     -31.203
  O      340.062     283.605     -30.129
  C      340.656     281.328     -30.670
  O      342.030     281.291     -31.067
  C      340.585     281.507     -29.165
  O      341.547     280.714     -28.479
  C      340.803     283.013     -29.047
  N      341.666     282.799     -24.092
  C      342.324     282.184     -25.141
  N      343.368     281.390     -24.830
  N      341.978     282.339     -26.396
  C      340.934     283.183     -26.567
  C      340.197     283.842     -25.611
  C      340.571     283.646     -24.224
  O      340.018     284.143     -23.251
  N      339.189     284.578     -26.185
  C      339.319     284.367     -27.482
  N      340.367     283.531     -27.763
  O      337.288     283.530     -33.930
  O      337.599     281.356     -35.256
  H      341.277     280.658     -27.538
  H      337.776     283.889     -34.696
  H      341.965     282.638     -23.145
  H      338.687     284.790     -28.254
  H      341.861     283.289     -29.158
  H      339.586     281.228     -28.798
  H      343.709     281.251     -23.893
  H      340.148     280.423     -31.009
  H      343.871     280.939     -25.588
  H      340.615     283.037     -32.030
  H      337.986     281.994     -30.873
  H      338.151     283.439     -31.908
  P      342.429     280.302     -32.267
  C      343.295     278.287     -30.878
  O      342.294     278.788     -31.755
  O      344.013     280.514     -32.398
  O      341.736     280.609     -33.555
  H      344.212     281.014     -33.209
  H      343.072     277.272     -30.625
  H      343.318     278.880     -29.988
  H      344.248     278.332     -31.362

 6  7  8  9  10  11  12  13  14  15  26  29  33  34 0
 6-311+G(2d,p)
 ****
 36  38  39  40  41 0
 6-311+G(2d,p)
 ****
 1  2  3  4  5  16  17  18  19  20  21  22  23  24  25 0
 3-21G
 ****
 27  28  30  31  32  35  37  42  43  44  45  46  47 0
 3-21G
 ****
 48  49 0
 3-21G
 ****


