%nproc=1
%NoSave
%Mem=1900MB
#P OB98/GEN NMR

erre ene a

0 1
  C     -223.882    -197.774      16.408
  O     -222.723    -197.133      16.911
  P     -221.341    -197.943      16.895
  C     -221.142    -198.421      19.441
  O     -221.348    -198.957      18.139
  C     -220.084    -199.223      20.198
  O     -220.603    -200.546      20.507
  C     -218.781    -199.419      19.415
  O     -217.674    -199.433      20.328
  C     -218.918    -200.818      18.847
  O     -217.644    -201.389      18.546
  C     -219.675    -201.514      19.979
  N     -222.160    -205.640      21.510
  C     -221.830    -204.502      22.219
  N     -222.130    -204.505      23.537
  N     -221.263    -203.452      21.684
  C     -221.016    -203.595      20.357
  C     -221.309    -204.667      19.544
  C     -221.926    -205.826      20.153
  O     -222.217    -206.876      19.589
  N     -220.940    -204.429      18.249
  C     -220.384    -203.236      18.276
  N     -220.374    -202.704      19.541
  O     -220.270    -196.831      17.319
  O     -220.989    -198.549      15.577
  H     -217.781    -202.351      18.444
  H     -219.756    -196.552      16.541
  H     -222.585    -206.428      21.972
  H     -219.952    -202.724      17.425
  H     -219.001    -201.802      20.794
  H     -219.507    -200.794      17.923
  H     -222.505    -205.307      24.023
  H     -218.603    -198.669      18.637
  H     -221.858    -203.701      24.087
  H     -219.887    -198.726      21.155
  H     -222.082    -198.457      19.994
  H     -220.832    -197.374      19.359
  P     -216.383    -198.589      19.880
  C     -215.034    -200.813      19.741
  O     -215.436    -199.617      19.100
  O     -215.614    -198.331      21.259
  O     -216.702    -197.320      19.159
  H     -215.064    -197.529      21.197
  H     -215.439    -201.663      19.186
  H     -215.383    -200.864      20.777
  H     -213.943    -200.869      19.735
  H     -224.718    -197.111      16.485
  H     -224.075    -198.659      16.977
  H     -223.728    -198.036      15.382

 3  4  5  6  7  8  9  10  11  12  23  26  30  31 0
 6-311+G(2d,p)
 ****
 33  35  36  37  38 0
 6-311+G(2d,p)
 ****
 1  2  13  14  15  16  17  18  19  20  21  22  24  25 0
 3-21G
 ****
 27  28  29  32  34  39  40  41  42  43  44  45  46  47  48  49 0
 3-21G
 ****


