%nproc=1
%NoSave
%Mem=1900MB
#P OB98/GEN NMR

erre ene a

0 1
  C      457.516     -97.427     270.878
  O      457.277     -98.681     271.483
  H      456.696     -97.207     270.190
  H      458.449     -97.459     270.313
  H      457.565     -96.636     271.632
  P      458.229     -99.102     272.703
  C      456.063     -99.364     274.118
  O      457.385     -98.852     274.047
  C      455.793     -99.925     275.513
  O      456.688    -101.051     275.741
  C      456.028     -98.916     276.646
  O      455.057     -99.156     277.670
  C      457.401     -99.299     277.167
  O      457.646     -98.892     278.506
  C      457.363    -100.821     276.994
  N      458.696    -101.422     276.990
  C      459.349    -101.531     278.214
  O      458.856    -101.242     279.302
  N      460.635    -102.005     278.155
  C      461.318    -102.341     277.023
  O      462.477    -102.739     277.033
  C      460.578    -102.194     275.762
  C      459.322    -101.744     275.804
  O      459.319     -97.933     272.727
  O      458.843    -100.457     272.599
  H      460.075     -98.160     272.154
  H      457.793     -97.925     278.496
  H      461.123    -102.090     279.032
  H      461.092    -102.443     274.844
  H      458.755    -101.603     274.890
  H      456.755    -101.278     277.782
  H      458.178     -98.855     276.532
  H      455.984     -97.869     276.332
  H      454.770    -100.317     275.545
  H      455.945    -100.166     273.383
  H      455.352     -98.562     273.883
  P      453.598     -98.516     277.464
  C      452.609    -100.934     277.273
  O      452.741     -99.639     276.706
  O      453.898     -97.417     276.341
  O      453.006     -97.989     278.729
  H      454.576     -97.701     275.704
  H      452.007    -101.544     276.632
  H      452.143    -100.857     278.233
  H      453.577    -101.376     277.381

 6  7  8  9  10  11  12  13  14  15  16  27  31  32  33  34  35 0
 6-311+G(2d,p)
 ****
 36  37 0
 6-311+G(2d,p)
 ****
 1  2  3  4  5  17  18  19  20  21  22  23  24  25 0
 3-21G
 ****
 26  28  29  30  38  39  40  41  42  43  44  45 0
 3-21G
 ****


