%nproc=1
%NoSave
%Mem=1900MB
#P OB98/GEN NMR

erre ene a

0 1
  C      132.377     111.977     -15.463
  O      131.463     110.902     -15.554
  P      131.803     109.503     -14.856
  C      132.189     107.403     -16.287
  O      132.714     108.659     -15.872
  C      131.552     107.526     -17.670
  O      132.519     107.998     -18.630
  C      131.027     106.210     -18.231
  O      129.802     105.853     -17.619
  C      130.925     106.542     -19.716
  O      129.709     107.255     -19.992
  C      132.142     107.458     -19.916
  N      135.209     107.271     -23.989
  C      134.072     107.960     -23.748
  N      133.289     107.927     -22.649
  C      133.775     107.054     -21.752
  C      134.901     106.254     -21.871
  C      135.653     106.403     -23.048
  N      136.846     105.754     -23.279
  N      135.052     105.462     -20.748
  C      134.034     105.773     -19.974
  N      133.273     106.774     -20.510
  O      130.632     108.767     -14.296
  O      132.832     109.898     -13.695
  H      128.970     106.641     -19.830
  H      132.454     109.647     -12.830
  H      133.755     108.634     -24.538
  H      133.816     105.317     -19.015
  H      131.905     108.313     -20.561
  H      130.931     105.650     -20.347
  H      131.774     105.421     -18.089
  H      130.746     108.269     -17.610
  H      131.436     107.087     -15.559
  H      137.374     106.042     -24.088
  H      137.338     105.352     -22.484
  H      132.995     106.663     -16.306
  P      129.456     104.311     -17.369
  C      127.438     103.521     -18.738
  O      128.836     103.744     -18.733
  O      128.668     104.016     -16.136
  O      130.896     103.608     -17.317
  H      130.863     102.846     -16.709
  H      127.214     102.587     -18.213
  H      127.101     103.435     -19.774
  H      126.907     104.349     -18.259
  H      131.984     112.824     -15.985
  H      133.310     111.690     -15.900
  H      132.528     112.231     -14.435

 3  4  5  6  7  8  9  10  11  12  22  25  29  30  31  32 0
 6-311+G(2d,p)
 ****
 33  36  37 0
 6-311+G(2d,p)
 ****
 1  2  13  14  15  16  17  18  19  20  21  23  24  26 0
 3-21G
 ****
 27  28  34  35  38  39  40  41  42  43  44  45  46  47  48 0
 3-21G
 ****


