%nproc=1
%NoSave
%Mem=1900MB
#P OB98/GEN NMR

erre ene a

0 1
  C      469.794     233.023     -49.903
  O      470.005     231.626     -49.987
  H      468.952     233.288     -50.547
  H      470.679     233.567     -50.244
  H      469.552     233.310     -48.877
  P      471.241     230.991     -49.189
  C      473.816     231.090     -49.416
  O      472.566     231.629     -49.829
  C      474.963     231.748     -50.183
  O      474.995     231.271     -51.546
  C      474.860     233.265     -50.278
  O      475.206     233.866     -49.047
  C      475.814     233.538     -51.430
  O      477.179     233.488     -50.992
  C      475.499     232.350     -52.368
  N      474.548     232.680     -53.426
  C      475.002     233.569     -54.406
  O      476.136     234.043     -54.336
  N      474.144     233.912     -55.426
  C      472.964     233.384     -55.487
  N      472.169     233.763     -56.523
  C      472.464     232.412     -54.499
  C      473.291     232.117     -53.500
  O      471.262     229.498     -49.085
  O      471.165     231.684     -47.748
  H      477.728     233.593     -51.797
  H      470.666     231.122     -47.125
  H      471.473     231.988     -54.595
  H      473.002     231.408     -52.727
  H      476.419     231.981     -52.842
  H      475.656     234.519     -51.876
  H      473.852     233.559     -50.587
  H      475.905     231.446     -49.705
  H      472.565     234.418     -57.192
  H      473.787     230.016     -49.628
  H      471.304     233.298     -56.766
  H      473.958     231.225     -48.338
  P      475.037     235.441     -48.800
  C      476.531     237.511     -49.114
  O      476.468     236.092     -49.144
  O      474.474     235.822     -47.475
  O      474.137     235.920     -50.036
  H      473.191     235.677     -49.888
  H      477.523     237.829     -49.357
  H      476.274     237.859     -48.135
  H      475.843     237.914     -49.827

 6  7  8  9  10  11  12  13  14  15  16  26  30  31  32  33  35 0
 6-311+G(2d,p)
 ****
 37  38 0
 6-311+G(2d,p)
 ****
 1  2  3  4  5  17  18  19  20  21  22  23  24  25 0
 3-21G
 ****
 27  28  29  34  36  39  40  41  42  43  44  45  46 0
 3-21G
 ****


