%nproc=1
%NoSave
%Mem=1900MB
#P OB98/GEN NMR

erre ene a

0 1
  C      114.945      22.220       7.078
  O      115.850      22.749       8.032
  P      116.432      24.235       7.872
  C      118.216      25.361       6.400
  O      117.395      24.214       6.588
  C      118.795      25.387       4.988
  O      117.725      25.638       4.046
  C      119.850      26.468       4.781
  O      120.859      25.969       3.895
  C      119.107      27.588       4.075
  O      120.004      28.397       3.293
  C      118.070      26.801       3.268
  N      116.018      30.758       0.716
  C      117.266      30.241       0.718
  N      117.749      29.204       1.440
  C      116.774      28.654       2.182
  C      115.453      29.066       2.280
  C      115.082      30.179       1.501
  N      113.802      30.695       1.493
  N      114.757      28.271       3.170
  C      115.634      27.384       3.581
  N      116.866      27.566       3.007
  O      117.050      24.806       9.100
  O      115.185      25.102       7.376
  H      119.452      28.936       2.691
  H      115.201      25.988       7.787
  H      117.977      30.727       0.052
  H      115.437      26.601       4.299
  H      118.480      26.458       2.308
  H      118.629      28.238       4.818
  H      120.307      26.800       5.718
  H      119.206      24.392       4.761
  H      119.034      25.322       7.126
  H      113.599      31.413       0.815
  H      113.069      30.160       1.939
  H      117.625      26.266       6.590
  P      122.282      26.723       3.956
  C      123.037      28.983       2.906
  O      121.981      28.203       3.421
  O      123.354      25.950       3.263
  O      122.486      26.877       5.539
  H      121.626      26.871       6.014
  H      122.646      29.967       2.631
  H      123.451      28.513       2.008
  H      123.822      29.110       3.654
  H      114.674      21.223       7.358
  H      115.410      22.206       6.115
  H      114.068      22.831       7.041

 3  4  5  6  7  8  9  10  11  12  22  25  29  30  31  32 0
 6-311+G(2d,p)
 ****
 33  36  37 0
 6-311+G(2d,p)
 ****
 1  2  13  14  15  16  17  18  19  20  21  23  24  26 0
 3-21G
 ****
 27  28  34  35  38  39  40  41  42  43  44  45  46  47  48 0
 3-21G
 ****


