%nproc=1
%NoSave
%Mem=1900MB
#P OB98/GEN NMR

erre ene a

0 1
  C      481.255      60.404    -371.308
  O      481.506      61.633    -370.656
  H      481.446      60.530    -372.376
  H      480.212      60.105    -371.171
  H      481.925      59.630    -370.921
  P      481.248      61.669    -369.072
  C      479.062      63.012    -369.426
  O      479.657      61.819    -368.929
  C      477.545      62.965    -369.258
  O      477.001      61.836    -369.967
  C      477.074      62.824    -367.816
  O      477.044      64.093    -367.177
  C      475.672      62.272    -368.018
  O      474.767      63.351    -368.333
  C      475.841      61.353    -369.243
  N      473.710      56.687    -369.357
  C      473.187      57.913    -369.566
  N      473.796      59.116    -369.466
  C      475.088      58.964    -369.120
  C      475.757      57.775    -368.869
  C      475.016      56.593    -369.008
  N      475.550      55.339    -368.796
  N      477.074      58.013    -368.536
  C      477.210      59.320    -368.635
  N      476.030      59.943    -368.950
  O      482.074      62.646    -368.304
  O      481.485      60.132    -368.688
  H      474.950      64.064    -367.693
  H      481.096      59.548    -369.362
  H      472.138      57.934    -369.845
  H      478.143      59.855    -368.513
  H      474.979      61.420    -369.920
  H      475.282      61.780    -367.127
  H      477.672      62.091    -367.261
  H      477.126      63.874    -369.720
  H      479.311      63.149    -370.486
  H      474.905      54.565    -368.726
  H      476.483      55.283    -368.410
  H      479.481      63.853    -368.863
  P      477.414      64.249    -365.624
  C      475.049      64.640    -364.691
  O      476.120      63.718    -364.835
  O      477.896      65.601    -365.236
  O      478.497      63.102    -365.358
  H      478.971      63.277    -364.525
  H      474.249      64.176    -364.153
  H      474.702      64.938    -365.658
  H      475.389      65.500    -364.154

 6  7  8  9  10  11  12  13  14  15  25  28  32  33  34  35 0
 6-311+G(2d,p)
 ****
 36  39  40 0
 6-311+G(2d,p)
 ****
 1  2  3  4  5  16  17  18  19  20  21  22  23  24 0
 3-21G
 ****
 26  27  29  30  31  37  38  41  42  43  44  45  46  47 0
 3-21G
 ****
 48 0
 3-21G
 ****


