%nproc=1
%NoSave
%Mem=1900MB
#P OB98/GEN NMR

erre ene a

0 1
  C       -2.214    -334.706    -162.925
  O       -3.339    -333.831    -162.801
  P       -3.570    -332.768    -163.982
  C       -2.608    -330.462    -164.671
  O       -2.464    -331.607    -163.841
  C       -2.131    -329.190    -163.951
  O       -2.961    -328.915    -162.788
  C       -0.683    -329.271    -163.455
  O       -0.124    -327.951    -163.546
  C       -0.838    -329.633    -161.992
  O        0.338    -329.321    -161.247
  C       -2.082    -328.820    -161.639
  N       -1.928    -328.882    -156.534
  C       -1.133    -328.296    -157.456
  N       -1.230    -328.346    -158.802
  C       -2.313    -329.062    -159.170
  C       -3.208    -329.723    -158.347
  C       -2.984    -329.616    -156.966
  N       -3.781    -330.232    -156.022
  N       -4.156    -330.388    -159.099
  C       -3.835    -330.137    -160.350
  N       -2.744    -329.313    -160.446
  O       -4.934    -332.039    -163.561
  O       -3.678    -333.387    -165.339
  H        0.447    -328.347    -161.245
  H       -5.657    -332.326    -164.149
  H       -0.303    -327.717    -157.060
  H       -4.345    -330.526    -161.222
  H       -1.860    -327.758    -161.466
  H       -1.033    -330.708    -161.896
  H       -0.053    -329.978    -164.002
  H       -2.243    -328.344    -164.638
  H       -3.654    -330.336    -164.959
  H       -3.533    -330.129    -155.048
  H       -4.539    -330.820    -156.333
  H       -2.054    -330.620    -165.604
  P        0.921    -327.699    -164.737
  C        3.509    -327.649    -164.906
  O        2.376    -327.671    -164.062
  O        0.665    -326.171    -165.148
  O        0.763    -328.627    -165.898
  H        0.925    -326.026    -166.077
  H        4.251    -326.967    -164.476
  H        3.270    -327.314    -165.916
  H        3.943    -328.650    -164.951
  H       -2.175    -335.359    -162.078
  H       -1.315    -334.127    -162.970
  H       -2.310    -335.286    -163.819

 3  4  5  6  7  8  9  10  11  12  22  25  29  30  31  32 0
 6-311+G(2d,p)
 ****
 33  36  37 0
 6-311+G(2d,p)
 ****
 1  2  13  14  15  16  17  18  19  20  21  23  24  26 0
 3-21G
 ****
 27  28  34  35  38  39  40  41  42  43  44  45  46  47  48 0
 3-21G
 ****


