%nproc=1
%NoSave
%Mem=1900MB
#P OB98/GEN NMR

erre ene a

0 1
  C     -207.673      25.842    -272.423
  O     -208.886      26.144    -271.730
  P     -209.132      25.351    -270.356
  C     -211.343      24.098    -270.873
  O     -210.717      25.162    -270.168
  C     -212.698      23.733    -270.252
  O     -212.528      23.140    -268.932
  C     -213.644      24.932    -270.085
  O     -214.978      24.444    -270.302
  C     -213.473      25.290    -268.622
  O     -214.563      26.086    -268.151
  C     -213.369      23.891    -268.023
  N     -214.526      23.509    -263.119
  C     -215.349      23.585    -264.224
  N     -216.682      23.494    -263.995
  N     -214.911      23.732    -265.453
  C     -213.555      23.765    -265.527
  C     -212.636      23.689    -264.510
  C     -213.133      23.549    -263.158
  O     -212.448      23.476    -262.146
  N     -211.345      23.726    -264.999
  C     -211.507      23.902    -266.301
  N     -212.820      23.875    -266.677
  O     -208.739      26.425    -269.236
  O     -208.324      24.103    -270.231
  H     -215.357      25.513    -268.134
  H     -207.845      26.245    -268.897
  H     -214.916      23.408    -262.189
  H     -210.705      24.023    -267.008
  H     -214.344      23.385    -267.961
  H     -212.543      25.851    -268.479
  H     -217.082      23.331    -263.083
  H     -213.434      25.768    -270.761
  H     -217.305      23.507    -264.789
  H     -213.172      22.973    -270.893
  H     -210.696      23.214    -270.861
  H     -211.451      24.380    -271.922
  P     -215.649      24.707    -271.729
  C     -217.493      26.258    -270.771
  O     -217.192      25.068    -271.479
  O     -215.713      23.241    -272.378
  O     -214.893      25.652    -272.609
  H     -215.512      23.296    -273.331
  H     -218.489      26.602    -271.067
  H     -216.769      27.044    -270.972
  H     -217.502      26.043    -269.696
  H     -207.618      26.426    -273.318
  H     -207.655      24.802    -272.675
  H     -206.837      26.071    -271.796

 3  4  5  6  7  8  9  10  11  12  23  26  30  31 0
 6-311+G(2d,p)
 ****
 33  35  36  37  38 0
 6-311+G(2d,p)
 ****
 1  2  13  14  15  16  17  18  19  20  21  22  24  25 0
 3-21G
 ****
 27  28  29  32  34  39  40  41  42  43  44  45  46  47  48  49 0
 3-21G
 ****


