%nproc=1
%NoSave
%Mem=1900MB
#P OB98/GEN NMR

erre ene a

0 1
  C      231.527    -377.967    -192.648
  O      232.504    -376.950    -192.547
  P      233.115    -376.570    -191.116
  C      235.376    -377.727    -191.500
  O      234.183    -377.702    -190.728
  C      236.438    -376.830    -190.867
  O      236.682    -377.223    -189.499
  C      237.795    -376.890    -191.559
  O      237.779    -376.147    -192.762
  C      238.703    -376.327    -190.470
  O      238.662    -374.891    -190.469
  C      238.054    -376.885    -189.197
  N      241.058    -378.594    -185.444
  C      240.662    -377.347    -185.784
  N      239.892    -376.968    -186.825
  C      239.542    -378.035    -187.567
  C      239.897    -379.361    -187.362
  C      240.675    -379.634    -186.225
  N      241.035    -380.902    -185.832
  N      239.369    -380.159    -188.359
  C      238.716    -379.329    -189.148
  N      238.740    -378.051    -188.674
  O      232.112    -376.255    -190.055
  O      234.038    -375.299    -191.421
  H      239.037    -374.589    -189.618
  H      233.714    -374.533    -190.908
  H      241.005    -376.549    -185.130
  H      238.202    -379.611    -190.060
  H      238.023    -376.137    -188.394
  H      239.749    -376.622    -190.603
  H      238.071    -377.931    -191.751
  H      236.054    -375.800    -190.858
  H      235.143    -377.370    -192.507
  H      241.467    -381.000    -184.928
  H      240.517    -381.692    -186.218
  H      235.743    -378.757    -191.568
  P      238.990    -376.286    -193.797
  C      237.455    -376.588    -195.831
  O      238.458    -377.175    -195.022
  O      240.296    -376.722    -193.216
  O      239.103    -374.824    -194.445
  H      240.036    -374.646    -194.676
  H      236.488    -376.654    -195.321
  H      237.397    -377.138    -196.772
  H      237.687    -375.541    -196.042
  H      231.237    -378.083    -193.671
  H      230.672    -377.699    -192.063
  H      231.933    -378.888    -192.286

 3  4  5  6  7  8  9  10  11  12  22  25  29  30  31  32 0
 6-311+G(2d,p)
 ****
 33  36  37 0
 6-311+G(2d,p)
 ****
 1  2  13  14  15  16  17  18  19  20  21  23  24  26 0
 3-21G
 ****
 27  28  34  35  38  39  40  41  42  43  44  45  46  47  48 0
 3-21G
 ****


