%nproc=1
%NoSave
%Mem=1900MB
#P OB98/GEN NMR

erre ene a

0 1
  C     -132.899     144.048     495.797
  O     -133.362     142.906     496.491
  H     -132.226     144.608     496.448
  H     -133.739     144.689     495.519
  H     -132.351     143.743     494.895
  P     -134.355     141.931     495.694
  C     -136.391     142.990     496.930
  O     -135.788     142.656     495.682
  C     -137.126     144.322     496.802
  O     -136.306     145.262     496.068
  C     -138.438     144.237     496.037
  O     -139.491     143.714     496.824
  C     -138.640     145.690     495.640
  O     -139.243     146.445     496.701
  C     -137.207     146.171     495.393
  N     -135.393     149.145     491.655
  C     -135.508     149.345     492.989
  N     -135.992     148.491     493.920
  C     -136.352     147.323     493.354
  C     -136.289     146.981     492.015
  C     -135.773     147.956     491.141
  N     -135.677     147.768     489.781
  N     -136.780     145.708     491.814
  C     -137.137     145.287     493.010
  N     -136.890     146.229     493.975
  O     -134.555     140.711     496.712
  O     -133.860     141.473     494.362
  H     -138.703     146.279     497.497
  H     -133.981     139.968     496.442
  H     -135.179     150.312     493.356
  H     -137.577     144.321     493.233
  H     -137.027     147.175     495.804
  H     -139.289     145.767     494.766
  H     -138.304     143.637     495.126
  H     -137.289     144.725     497.814
  H     -135.610     143.072     497.694
  H     -137.083     142.192     497.212
  H     -135.366     148.533     489.206
  H     -136.066     146.927     489.371
  P     -140.077     142.277     496.420
  C     -142.509     143.147     496.027
  O     -141.350     142.530     495.473
  O     -140.726     141.730     497.782
  O     -139.074     141.325     495.864
  H     -140.604     140.762     497.842
  H     -143.259     143.242     495.270
  H     -142.253     144.117     496.399
  H     -142.885     142.545     496.828

 6  7  8  9  10  11  12  13  14  15  25  28  32  33  34  35 0
 6-311+G(2d,p)
 ****
 36  37  40 0
 6-311+G(2d,p)
 ****
 1  2  3  4  5  16  17  18  19  20  21  22  23  24 0
 3-21G
 ****
 26  27  29  30  31  38  39 41  42  43  44  45  46  47  48 0
 3-21G
 ****


