%nproc=1
%NoSave
%Mem=1900MB
#P OB98/GEN NMR

erre ene a

0 1
  C     -692.578     737.048     150.481
  O     -692.751     736.114     149.433
  H     -693.374     737.796     150.421
  H     -691.613     737.553     150.383
  H     -692.637     736.544     151.448
  P     -691.613     734.991     149.286
  C     -692.921     732.872     150.066
  O     -692.009     733.908     150.405
  C     -692.252     731.513     150.254
  O     -691.132     731.367     149.350
  C     -691.676     731.295     151.649
  O     -692.664     730.946     152.607
  C     -690.727     730.142     151.374
  O     -691.477     728.919     151.237
  C     -690.121     730.575     150.022
  N     -688.882     731.342     150.165
  C     -687.784     730.668     150.720
  O     -687.883     729.493     151.069
  N     -686.609     731.355     150.893
  C     -686.524     732.596     150.537
  N     -685.335     733.231     150.746
  C     -687.648     733.342     149.939
  C     -688.781     732.660     149.783
  O     -690.316     735.682     149.919
  O     -691.410     734.435     147.916
  H     -691.791     728.681     152.129
  H     -689.585     735.021     149.990
  H     -687.533     734.381     149.666
  H     -689.650     733.139     149.351
  H     -689.916     729.702     149.387
  H     -689.999     729.982     152.173
  H     -691.090     732.157     151.985
  H     -692.984     730.735     149.998
  H     -684.604     732.715     151.218
  H     -693.220     733.001     149.021
  H     -685.238     734.236     150.672
  H     -693.808     732.927     150.701
  P     -692.406     731.379     154.132
  C     -694.290     733.136     154.469
  O     -692.901     732.901     154.277
  O     -690.816     731.503     154.209
  O     -692.947     730.428     155.154
  H     -690.475     731.172     155.061
  H     -694.466     734.188     154.548
  H     -694.613     732.652     155.367
  H     -694.836     732.744     153.637

 6  7  8  9  10  11  12  13  14  15  16  26  30  31  32  33  35 0
 6-311+G(2d,p)
 ****
 37  38 0
 6-311+G(2d,p)
 ****
 1  2  3  4  5  17  18  19  20  21  22  23  24  25 0
 3-21G
 ****
 27  28  29  34  36  39  40  41  42  43  44  45  46 0
 3-21G
 ****


