%nproc=1
%NoSave
%Mem=1900MB
#P OB98/GEN NMR

erre ene a

0 1
  C     -287.299    -534.227     181.450
  O     -288.247    -533.249     181.915
  P     -288.813    -533.350     183.413
  C     -291.094    -534.493     182.855
  O     -289.830    -534.586     183.504
  C     -291.953    -535.721     183.202
  O     -292.148    -535.798     184.641
  C     -293.359    -535.688     182.622
  O     -293.376    -536.038     181.245
  C     -294.075    -536.716     183.494
  O     -293.827    -538.055     183.028
  C     -293.402    -536.483     184.869
  N     -294.256    -535.744     185.800
  C     -295.226    -536.490     186.465
  O     -295.423    -537.691     186.259
  N     -296.002    -535.795     187.361
  C     -295.940    -534.448     187.595
  O     -296.673    -533.879     188.402
  C     -294.959    -533.711     186.799
  C     -294.171    -534.376     185.948
  O     -289.804    -532.094     183.486
  O     -287.788    -533.276     184.505
  H     -294.354    -538.162     182.211
  H     -289.865    -531.785     184.400
  H     -296.697    -536.318     187.874
  H     -294.898    -532.635     186.940
  H     -293.440    -533.835     185.349
  H     -293.133    -537.442     185.325
  H     -295.156    -536.572     183.508
  H     -293.816    -534.700     182.793
  H     -291.422    -536.624     182.890
  H     -290.953    -534.468     181.767
  H     -291.598    -533.566     183.169
  P     -293.562    -534.805     180.205
  C     -296.058    -535.559     180.068
  O     -295.131    -534.504     180.208
  O     -293.279    -535.562     178.813
  O     -292.669    -533.650     180.494
  H     -293.578    -536.472     178.825
  H     -295.698    -536.481     180.533
  H     -296.251    -535.735     178.995
  H     -297.005    -535.264     180.552
  H     -287.030    -534.010     180.437
  H     -287.738    -535.202     181.501
  H     -286.424    -534.197     182.065

 3  4  5  6  7  8  9  10  11  12  13  23  28  29  30  31  32 0
 6-311+G(2d,p)
 ****
 33  34 0
 6-311+G(2d,p)
 ****
 1  2  14  15  16  17  18  19  20  21  22  24  25  26 0
 3-21G
 ****
 27  35  36  37  38  39  40  41  42  43  44  45 0
 3-21G
 ****


