%nproc=1
%NoSave
%Mem=1900MB
#P OB98/GEN NMR

erre ene a

0 1
  C       94.866     149.517      -4.600
  O       93.765     150.429      -4.543
  P       93.630     151.342      -3.232
  C       94.596     153.657      -3.926
  O       93.438     152.865      -3.687
  C       94.192     155.093      -4.265
  O       95.332     155.974      -4.254
  C       93.591     155.236      -5.653
  O       92.247     154.796      -5.662
  C       93.752     156.729      -5.918
  O       92.610     157.475      -5.464
  C       95.009     157.095      -5.095
  N       96.136     157.472      -5.931
  C       96.161     158.802      -6.364
  O       95.252     159.573      -6.050
  N       97.201     159.215      -7.156
  C       98.121     158.368      -7.507
  N       99.122     158.835      -8.298
  C       98.116     156.949      -7.098
  C       97.103     156.573      -6.319
  O       95.109     151.322      -2.617
  O       92.620     150.843      -2.249
  H       92.424     157.148      -4.560
  H       95.070     151.372      -1.645
  H       98.898     156.281      -7.419
  H       97.019     155.550      -5.967
  H       94.791     157.936      -4.424
  H       93.858     156.935      -6.986
  H       94.186     154.665      -6.379
  H       93.473     155.439      -3.508
  H       99.094     159.814      -8.564
  H       95.181     153.232      -4.746
  H       99.884     158.264      -8.636
  H       95.235     153.628      -3.036
  P       91.913     153.439      -6.444
  C       91.201     152.123      -4.357
  O       90.777     152.723      -5.567
  O       93.199     152.537      -6.118
  O       91.658     153.537      -7.911
  H       93.160     151.706      -6.620
  H       90.318     151.863      -3.769
  H       91.818     152.817      -3.779
  H       91.762     151.211      -4.572
  H       94.834     148.976      -5.523
  H       94.803     148.831      -3.782
  H       95.784     150.062      -4.538

 3  4  5  6  7  8  9  10  11  12  13  21  23  27  28  29  30  32 0
 6-311+G(2d,p)
 ****
 34  35 0
 6-311+G(2d,p)
 ****
 1  2  14  15  16  17  18  19  20  22  24  25  26 0
 3-21G
 ****
 31  33  36  37  38  39  40  41  42  43  44  45  46 0
 3-21G
 ****


