%nproc=1
%NoSave
%Mem=1900MB
#P OB98/GEN NMR

erre ene a

0 1
  C     -496.554    -240.926    -275.555
  O     -497.563    -241.896    -275.361
  H     -495.899    -241.255    -276.366
  H     -495.956    -240.811    -274.646
  H     -497.001    -239.968    -275.829
  P     -498.574    -241.656    -274.140
  C     -500.371    -242.515    -275.809
  O     -499.904    -242.489    -274.467
  C     -501.200    -243.777    -276.036
  O     -502.209    -243.893    -275.003
  C     -501.966    -243.789    -277.351
  O     -501.148    -244.128    -278.459
  C     -503.016    -244.847    -277.063
  O     -502.518    -246.170    -277.305
  C     -503.311    -244.628    -275.568
  N     -504.588    -243.945    -275.363
  C     -505.723    -244.745    -275.480
  O     -505.682    -245.947    -275.739
  N     -506.921    -244.100    -275.332
  C     -507.092    -242.763    -275.133
  O     -508.199    -242.243    -275.061
  C     -505.857    -241.969    -275.032
  C     -504.680    -242.586    -275.154
  O     -499.021    -240.131    -274.331
  O     -497.995    -241.905    -272.786
  H     -498.590    -239.575    -273.656
  H     -503.265    -246.775    -277.123
  H     -507.755    -244.663    -275.412
  H     -505.957    -240.902    -274.875
  H     -503.754    -242.019    -275.096
  H     -503.352    -245.590    -275.040
  H     -503.889    -244.711    -277.695
  H     -502.465    -242.825    -277.511
  H     -500.535    -244.648    -275.966
  H     -499.517    -242.523    -276.497
  H     -500.965    -241.617    -275.998
  P     -501.567    -243.556    -279.898
  C     -499.025    -243.626    -280.584
  O     -500.370    -243.955    -280.891
  O     -501.390    -241.985    -279.655
  O     -502.931    -243.982    -280.325
  H     -500.727    -241.800    -278.967
  H     -498.385    -243.977    -281.366
  H     -498.746    -244.089    -279.661
  H     -498.929    -242.564    -280.494

 6  7  8  9  10  11  12  13  14  15  16  27  31  32  33  34  35 0
 6-311+G(2d,p)
 ****
 36  37 0
 6-311+G(2d,p)
 ****
 1  2  3  4  5  17  18  19  20  21  22  23  24  25 0
 3-21G
 ****
 26  28  29  30  38  39  40  41  42  43  44  45 0
 3-21G
 ****


