%nproc=1
%NoSave
%Mem=1900MB
#P OB98/GEN NMR

erre ene a

0 1
  C       64.615    -135.827    -255.410
  O       65.257    -134.692    -254.834
  P       66.745    -134.332    -255.339
  C       67.764    -135.585    -253.314
  O       67.702    -134.379    -254.046
  C       69.020    -135.637    -252.431
  O       68.903    -136.768    -251.519
  C       70.338    -135.811    -253.204
  O       71.349    -135.102    -252.474
  C       70.605    -137.301    -253.108
  O       71.979    -137.616    -253.327
  C       70.097    -137.580    -251.693
  N       72.007    -142.176    -250.483
  C       72.584    -140.958    -250.572
  N       72.009    -139.773    -250.906
  C       70.697    -139.941    -251.153
  C       69.980    -141.123    -251.128
  C       70.685    -142.291    -250.775
  N       70.097    -143.529    -250.667
  N       68.652    -140.896    -251.465
  C       68.573    -139.596    -251.688
  N       69.788    -138.982    -251.484
  O       66.635    -132.769    -255.668
  O       67.223    -135.105    -256.521
  H       72.103    -138.569    -253.136
  H       66.707    -132.628    -256.631
  H       73.657    -140.918    -250.351
  H       67.691    -139.072    -252.001
  H       70.824    -137.278    -250.923
  H       70.004    -137.832    -253.853
  H       70.293    -135.454    -254.239
  H       69.043    -134.733    -251.818
  H       67.804    -136.427    -254.022
  H       70.636    -144.283    -250.280
  H       69.076    -143.592    -250.697
  H       66.862    -135.702    -252.700
  P       71.985    -133.810    -253.179
  C       73.441    -135.577    -254.407
  O       73.361    -134.272    -253.859
  O       72.450    -132.905    -251.941
  O       71.029    -133.071    -254.075
  H       72.438    -131.962    -252.200
  H       74.104    -135.568    -255.274
  H       72.460    -135.954    -254.721
  H       73.845    -136.259    -253.651
  H       63.641    -135.942    -254.982
  H       65.196    -136.703    -255.214
  H       64.525    -135.688    -256.467

 3  4  5  6  7  8  9  10  11  12  22  25  29  30  31  32 0
 6-311+G(2d,p)
 ****
 33  36  37 0
 6-311+G(2d,p)
 ****
 1  2  13  14  15  16  17  18  19  20  21  23  24  26 0
 3-21G
 ****
 27  28  34  35  38  39  40  41  42  43  44  45  46  47  48 0
 3-21G
 ****


