%nproc=1
%NoSave
%Mem=1900MB
#P OB98/GEN NMR

erre ene a

0 1
  C      330.365     400.125    -204.401
  O      330.570     400.922    -205.573
  P      329.572     402.170    -205.758
  C      331.555     403.797    -206.144
  O      330.329     403.279    -206.648
  C      332.090     404.928    -207.035
  O      332.528     404.421    -208.325
  C      331.056     406.031    -207.320
  O      331.781     407.268    -207.393
  C      330.550     405.670    -208.706
  O      329.914     406.777    -209.341
  C      331.851     405.202    -209.343
  N      331.279     405.492    -214.357
  C      331.344     406.488    -213.412
  N      331.307     407.762    -213.871
  N      331.448     406.279    -212.126
  C      331.513     404.949    -211.809
  C      331.479     403.860    -212.658
  C      331.333     404.130    -214.077
  O      331.274     403.275    -214.959
  N      331.610     402.685    -211.964
  C      331.656     403.066    -210.696
  N      331.667     404.425    -210.547
  O      329.526     402.818    -204.294
  O      328.215     401.794    -206.243
  H      329.101     406.967    -208.826
  H      328.715     402.545    -203.830
  H      331.183     405.719    -215.331
  H      331.718     402.396    -209.849
  H      332.508     406.046    -209.621
  H      329.826     404.840    -208.640
  H      331.275     408.003    -214.849
  H      330.252     406.101    -206.578
  H      331.394     408.517    -213.196
  H      332.973     405.362    -206.543
  H      332.307     403.005    -206.099
  H      331.408     404.139    -205.115
  P      331.065     408.580    -206.828
  C      333.357     409.460    -205.968
  O      332.185     409.726    -206.723
  O      330.778     408.206    -205.289
  O      329.803     408.969    -207.524
  H      329.912     408.565    -205.019
  H      334.163     410.072    -206.359
  H      333.640     408.410    -206.028
  H      333.176     409.725    -204.920
  H      331.080     399.329    -204.381
  H      329.376     399.716    -204.416
  H      330.485     400.734    -203.530

 3  4  5  6  7  8  9  10  11  12  23  26  30  31 0
 6-311+G(2d,p)
 ****
 33  35  36  37  38 0
 6-311+G(2d,p)
 ****
 1  2  13  14  15  16  17  18  19  20  21  22  24  25 0
 3-21G
 ****
 27  28  29  32  34  39  40  41  42  43  44  45  46  47  48  49 0
 3-21G
 ****


