%nproc=1
%NoSave
%Mem=1900MB
#P OB98/GEN NMR

erre ene a

0 1
  C     -179.238    -466.172    -440.619
  O     -179.256    -466.362    -439.219
  H     -180.253    -465.935    -440.948
  H     -178.909    -467.082    -441.124
  H     -178.582    -465.337    -440.885
  P     -177.877    -466.727    -438.480
  C     -178.549    -469.217    -438.209
  O     -177.658    -468.287    -438.807
  C     -179.048    -470.216    -439.252
  O     -179.583    -469.542    -440.412
  C     -177.975    -471.145    -439.810
  O     -177.565    -472.160    -438.906
  C     -178.717    -471.708    -441.010
  O     -179.680    -472.684    -440.571
  C     -179.415    -470.435    -441.548
  N     -178.650    -469.780    -442.608
  C     -179.353    -468.898    -443.437
  O     -180.558    -468.709    -443.271
  N     -178.681    -468.277    -444.463
  C     -177.423    -468.526    -444.661
  N     -176.809    -467.892    -445.693
  C     -176.648    -469.467    -443.824
  C     -177.316    -470.046    -442.826
  O     -177.788    -466.356    -437.034
  O     -176.744    -466.046    -439.387
  H     -179.176    -473.445    -440.225
  H     -175.870    -466.233    -438.964
  H     -175.609    -469.667    -444.044
  H     -176.816    -470.756    -442.171
  H     -180.420    -470.669    -441.926
  H     -178.063    -472.201    -441.733
  H     -177.112    -470.576    -440.173
  H     -179.872    -470.780    -438.796
  H     -177.367    -467.254    -446.248
  H     -179.383    -468.657    -437.773
  H     -175.856    -468.085    -445.967
  H     -178.038    -469.769    -437.415
  P     -176.011    -472.190    -438.504
  C     -176.105    -474.750    -438.997
  O     -175.406    -473.526    -439.148
  O     -176.046    -472.488    -436.939
  O     -175.242    -470.945    -438.838
  H     -175.939    -471.666    -436.424
  H     -175.563    -475.533    -439.485
  H     -177.077    -474.662    -439.435
  H     -176.203    -474.979    -437.956

 6  7  8  9  10  11  12  13  14  15  16  26  30  31  32  33  35 0
 6-311+G(2d,p)
 ****
 37  38 0
 6-311+G(2d,p)
 ****
 1  2  3  4  5  17  18  19  20  21  22  23  24  25 0
 3-21G
 ****
 27  28  29  34  36  39  40  41  42  43  44  45  46 0
 3-21G
 ****


