%nproc=1
%NoSave
%Mem=1900MB
#P OB98/GEN NMR

erre ene a

0 1
  C     -481.986     100.390     521.654
  O     -481.584      99.626     522.778
  P     -482.478      98.327     523.112
  C     -481.068      96.482     521.913
  O     -481.466      97.076     523.133
  C     -479.650      95.895     522.059
  O     -478.725      96.943     522.413
  C     -479.533      94.821     523.152
  O     -479.958      93.574     522.675
  C     -478.029      94.877     523.461
  O     -477.279      94.143     522.497
  C     -477.747      96.389     523.332
  N     -475.405      97.178     527.782
  C     -475.140      96.245     526.783
  N     -474.086      95.432     526.977
  N     -475.853      96.114     525.684
  C     -476.905      96.997     525.655
  C     -477.283      97.938     526.553
  C     -476.444      98.112     527.748
  O     -476.578      98.981     528.586
  N     -478.399      98.613     526.162
  C     -478.689      98.083     524.984
  N     -477.810      97.104     524.625
  O     -483.331      98.107     521.776
  O     -483.353      98.445     524.334
  H     -477.335      94.598     521.609
  H     -484.246      98.484     521.872
  H     -474.809      97.240     528.586
  H     -479.524      98.391     524.356
  H     -476.742      96.583     522.926
  H     -477.796      94.448     524.445
  H     -473.491      95.464     527.814
  H     -480.093      95.117     524.041
  H     -473.876      94.742     526.283
  H     -479.335      95.489     521.082
  H     -481.039      97.247     521.128
  H     -481.774      95.695     521.636
  P     -480.557      92.529     523.719
  C     -482.922      93.611     523.974
  O     -482.161      92.496     523.530
  O     -480.375      93.278     525.136
  O     -479.885      91.187     523.723
  H     -480.134      92.615     525.829
  H     -483.788      93.687     523.345
  H     -482.358      94.546     523.928
  H     -483.229      93.437     525.005
  H     -481.323     101.221     521.532
  H     -482.983     100.749     521.804
  H     -481.956      99.778     520.777

 3  4  5  6  7  8  9  10  11  12  23  26  30  31 0
 6-311+G(2d,p)
 ****
 33  35  36  37  38 0
 6-311+G(2d,p)
 ****
 1  2  13  14  15  16  17  18  19  20  21  22  24  25 0
 3-21G
 ****
 27  28  29  32  34  39  40  41  42  43  44  45  46  47  48  49 0
 3-21G
 ****


