%nproc=1
%NoSave
%Mem=1900MB
#P OB98/GEN NMR

erre ene a

0 1
  C     1118.755     775.130    -123.591
  O     1118.621     775.874    -124.808
  P     1118.130     775.120    -126.134
  C     1118.789     777.431    -127.089
  O     1118.169     776.168    -127.348
  C     1118.123     778.536    -127.896
  O     1118.081     778.224    -129.301
  C     1116.667     778.787    -127.516
  O     1116.604     779.486    -126.263
  C     1116.150     779.547    -128.704
  O     1116.505     780.957    -128.618
  C     1116.931     778.897    -129.855
  N     1116.122     777.977    -130.656
  C     1115.818     778.417    -131.968
  O     1116.211     779.521    -132.367
  N     1115.072     777.581    -132.787
  C     1114.671     776.430    -132.324
  N     1113.935     775.664    -133.167
  C     1114.964     775.969    -130.967
  C     1115.685     776.791    -130.184
  O     1116.860     774.343    -125.996
  O     1119.368     774.148    -126.483
  H     1117.446     780.988    -128.322
  H     1119.023     773.357    -126.934
  H     1114.608     774.982    -130.628
  H     1115.934     776.501    -129.174
  H     1117.328     779.672    -130.551
  H     1115.067     779.505    -128.808
  H     1116.136     777.826    -127.426
  H     1118.705     779.456    -127.769
  H     1113.759     776.015    -134.110
  H     1119.847     777.376    -127.330
  H     1113.623     774.727    -132.933
  H     1118.722     777.616    -126.003
  P     1115.475     779.005    -125.220
  C     1115.011     781.357    -124.228
  O     1115.482     780.053    -123.979
  O     1116.136     777.683    -124.573
  O     1114.125     778.711    -125.812
  H     1115.431     777.041    -124.361
  H     1114.783     781.822    -123.268
  H     1114.112     781.364    -124.839
  H     1115.792     781.935    -124.722
  H     1119.090     775.781    -122.810
  H     1119.467     774.344    -123.730
  H     1117.808     774.710    -123.324

 3  4  5  6  7  8  9  10  11  12  13  23  27  28  29  30  32 0
 6-311+G(2d,p)
 ****
 34  35 0
 6-311+G(2d,p)
 ****
 1  2  14  15  16  17  18  19  20  21  22  24  25  26 0
 3-21G
 ****
 31  33  36  37  38  39  40  41  42  43  44  45  46 0
 3-21G
 ****


