%nproc=1
%NoSave
%Mem=1900MB
#P OB98/GEN NMR

erre ene a

0 1
  C      -56.600     100.479     101.515
  O      -56.027     100.289     100.237
  H      -55.807     100.738     102.220
  H      -57.078      99.555     101.848
  H      -57.332     101.292     101.492
  P      -57.030     100.130      98.997
  C      -58.492      98.203      98.044
  O      -57.518      98.599      98.997
  C      -58.179      96.797      97.531
  O      -57.177      96.900      96.481
  C      -57.625      95.851      98.604
  O      -58.125      94.535      98.349
  C      -56.130      95.874      98.342
  O      -55.442      94.729      98.826
  C      -56.107      95.993      96.815
  N      -54.827      96.481      96.308
  C      -54.196      95.722      95.327
  O      -54.676      94.721      94.798
  N      -52.951      96.159      94.953
  C      -52.286      97.233      95.465
  O      -51.162      97.561      95.102
  C      -52.999      97.989      96.504
  C      -54.216      97.583      96.873
  O      -56.054     100.209      97.732
  O      -58.134     101.133      98.932
  H      -55.951     101.133      97.437
  H      -55.840      93.945      98.395
  H      -52.480      95.619      94.244
  H      -52.498      98.842      96.943
  H      -54.761      98.106      97.652
  H      -56.343      95.027      96.353
  H      -55.683      96.759      98.808
  H      -57.866      96.146      99.631
  H      -59.084      96.380      97.073
  H      -58.480      98.900      97.201
  H      -59.483      98.229      98.509
  P      -59.380      94.042      99.222
  C      -59.616      93.042     101.633
  O      -58.776      93.630     100.648
  O      -59.719      92.649      98.514
  O      -60.496      95.030      99.246
  H      -58.927      92.181      98.198
  H      -59.043      92.836     102.513
  H      -60.027      92.130     101.253
  H      -60.410      93.718     101.874

 6  7  8  9  10  11  12  13  14  15  16  27  31  32  33  34  35 0
 6-311+G(2d,p)
 ****
 36  37 0
 6-311+G(2d,p)
 ****
 1  2  3  4  5  17  18  19  20  21  22  23  24  25 0
 3-21G
 ****
 26  28  29  30  38  39  40  41  42  43  44  45 0
 3-21G
 ****


