%nproc=1
%NoSave
%Mem=1900MB
#P OB98/GEN NMR

erre ene a

0 1
  C       80.627    -110.782     -35.691
  O       80.584    -111.314     -36.999
  H       80.625    -109.690     -35.754
  H       81.549    -111.102     -35.199
  H       79.761    -111.105     -35.107
  P       80.182    -112.859     -37.152
  C       81.322    -115.059     -36.377
  O       81.497    -113.712     -36.789
  C       82.677    -115.711     -36.090
  O       83.462    -115.715     -37.323
  C       83.504    -114.989     -35.013
  O       84.219    -115.963     -34.244
  C       84.514    -114.205     -35.834
  O       85.688    -113.887     -35.093
  C       84.753    -115.173     -36.989
  N       89.133    -114.596     -39.376
  C       88.762    -115.478     -38.383
  N       89.719    -116.299     -37.900
  N       87.550    -115.549     -37.892
  C       86.682    -114.687     -38.477
  C       86.924    -113.762     -39.463
  C       88.274    -113.679     -39.986
  O       88.668    -112.905     -40.851
  N       85.795    -113.032     -39.738
  C       84.879    -113.501     -38.907
  N       85.372    -114.504     -38.119
  O       80.048    -113.029     -38.739
  O       78.938    -113.270     -36.439
  H       85.462    -113.187     -34.447
  H       79.114    -112.920     -39.006
  H       90.081    -114.570     -39.705
  H       83.867    -113.138     -38.821
  H       85.413    -116.005     -36.709
  H       84.064    -113.270     -36.190
  H       90.665    -116.325     -38.246
  H       82.912    -114.352     -34.347
  H       89.454    -116.981     -37.197
  H       82.510    -116.758     -35.813
  H       80.821    -115.618     -37.175
  H       80.690    -115.085     -35.482
  P       83.402    -116.802     -33.147
  C       82.164    -116.280     -30.916
  O       83.103    -115.852     -31.891
  O       84.500    -117.822     -32.581
  O       82.215    -117.528     -33.696
  H       84.079    -118.670     -32.351
  H       82.081    -115.537     -30.150
  H       82.493    -117.202     -30.484
  H       81.210    -116.424     -31.379

 6  7  8  9  10  11  12  13  14  15  26  29  33  34 0
 6-311+G(2d,p)
 ****
 36  38  39  40  41 0
 6-311+G(2d,p)
 ****
 1  2  3  4  5  16  17  18  19  20  21  22  23  24  25 0
 3-21G
 ****
 27  28  30  31  32  35  37  42  43  44  45  46  47 0
 3-21G
 ****
 48  49 0
 3-21G
 ****


