%nproc=1
%NoSave
%Mem=1900MB
#P OB98/GEN NMR

erre ene a

0 1
  C     -866.721    -511.092     186.270
  O     -865.758    -511.655     187.165
  P     -864.226    -511.199     187.221
  C     -864.404    -510.172     189.594
  O     -864.120    -509.944     188.228
  C     -864.446    -508.848     190.377
  O     -865.541    -508.029     189.907
  C     -864.709    -508.981     191.872
  O     -863.568    -509.479     192.570
  C     -865.098    -507.546     192.232
  O     -863.948    -506.736     192.471
  C     -865.824    -507.078     190.957
  N     -867.260    -506.934     191.137
  C     -867.663    -506.095     192.187
  O     -866.845    -505.580     192.943
  N     -869.019    -505.863     192.358
  C     -869.878    -506.484     191.611
  N     -871.195    -506.214     191.822
  C     -869.491    -507.484     190.603
  C     -868.183    -507.654     190.421
  O     -863.614    -510.949     185.889
  O     -863.457    -512.374     188.007
  H     -862.514    -512.387     187.735
  H     -863.562    -507.033     193.315
  H     -870.245    -508.027     190.053
  H     -867.805    -508.360     189.679
  H     -865.406    -506.131     190.611
  H     -865.708    -507.523     193.138
  H     -865.569    -509.662     192.032
  H     -863.496    -508.315     190.203
  H     -871.438    -505.520     192.519
  H     -863.601    -510.799     190.011
  H     -871.943    -506.641     191.299
  H     -865.345    -510.715     189.695
  P     -863.482    -511.054     192.790
  C     -861.406    -511.250     191.244
  O     -862.720    -511.680     191.525
  O     -864.992    -511.544     192.622
  O     -862.928    -511.465     194.121
  H     -865.173    -512.256     193.268
  H     -860.874    -512.061     190.719
  H     -860.848    -511.000     192.136
  H     -861.442    -510.375     190.580
  H     -867.670    -511.562     186.425
  H     -866.405    -511.251     185.260
  H     -866.809    -510.042     186.455

 3  4  5  6  7  8  9  10  11  12  13  24  27  28  29  30  32 0
 6-311+G(2d,p)
 ****
 34  35 0
 6-311+G(2d,p)
 ****
 1  2  14  15  16  17  18  19  20  21  22  23  25  26 0
 3-21G
 ****
 31  33  36  37  38  39  40  41  42  43  44  45  46 0
 3-21G
 ****


