%nproc=1
%NoSave
%Mem=1900MB
#P OB98/GEN NMR

erre ene a

0 1
  C      -57.986     -16.081     181.473
  O      -57.024     -15.076     181.195
  H      -58.472     -16.369     180.537
  H      -58.752     -15.707     182.159
  H      -57.501     -16.961     181.904
  P      -56.284     -14.376     182.432
  C      -57.513     -12.207     181.742
  O      -57.173     -13.097     182.800
  C      -57.432     -10.760     182.226
  O      -58.219     -10.590     183.421
  C      -56.018     -10.330     182.591
  O      -55.249     -10.078     181.431
  C      -56.305      -9.125     183.461
  O      -56.593      -7.962     182.669
  C      -57.561      -9.589     184.234
  N      -57.245     -10.113     185.560
  C      -57.433      -9.234     186.631
  O      -57.845      -8.091     186.432
  N      -57.126      -9.669     187.896
  C      -56.690     -10.876     188.081
  N      -56.401     -11.241     189.359
  C      -56.493     -11.842     186.983
  C      -56.786     -11.397     185.760
  O      -54.823     -14.085     182.268
  O      -56.562     -15.375     183.654
  H      -56.855      -7.267     183.305
  H      -55.858     -16.047     183.712
  H      -56.131     -12.838     187.182
  H      -56.673     -12.044     184.896
  H      -58.270      -8.762     184.353
  H      -55.461      -8.882     184.105
  H      -55.542     -11.094     183.216
  H      -57.856     -10.111     181.447
  H      -56.541     -10.544     190.078
  H      -58.535     -12.446     181.433
  H      -56.147     -12.180     189.631
  H      -56.847     -12.355     180.884
  P      -53.748     -10.626     181.310
  C      -53.103      -8.167     181.771
  O      -52.836      -9.540     182.068
  O      -53.307     -10.984     179.932
  O      -53.733     -11.867     182.327
  H      -54.218     -12.646     181.954
  H      -52.437      -7.545     182.332
  H      -54.114      -7.935     182.034
  H      -52.957      -7.993     180.725

 6  7  8  9  10  11  12  13  14  15  16  26  30  31  32  33  35 0
 6-311+G(2d,p)
 ****
 37  38 0
 6-311+G(2d,p)
 ****
 1  2  3  4  5  17  18  19  20  21  22  23  24  25 0
 3-21G
 ****
 27  28  29  34  36  39  40  41  42  43  44  45  46 0
 3-21G
 ****


