%nproc=1
%NoSave
%Mem=1900MB
#P OB98/GEN NMR

erre ene a

0 1
  C      -21.286    -205.979     -39.658
  O      -20.511    -204.904     -40.198
  P      -20.888    -204.444     -41.691
  C      -18.620    -205.043     -42.800
  O      -20.013    -205.319     -42.717
  C      -17.860    -206.199     -43.469
  O      -17.981    -207.424     -42.690
  C      -18.353    -206.524     -44.888
  O      -17.208    -206.938     -45.648
  C      -19.251    -207.724     -44.660
  O      -19.474    -208.453     -45.866
  C      -18.451    -208.460     -43.584
  N      -18.810    -213.387     -42.541
  C      -17.957    -212.725     -43.402
  N      -17.037    -213.475     -44.042
  N      -18.007    -211.431     -43.618
  C      -18.960    -210.804     -42.871
  C      -19.851    -211.352     -41.977
  C      -19.806    -212.787     -41.780
  O      -20.534    -213.424     -41.024
  N      -20.647    -210.379     -41.400
  C      -20.264    -209.264     -42.006
  N      -19.216    -209.459     -42.866
  O      -20.248    -202.978     -41.794
  O      -22.360    -204.426     -41.963
  H      -20.262    -209.018     -45.730
  H      -20.936    -202.298     -41.675
  H      -18.738    -214.390     -42.429
  H      -20.702    -208.291     -41.838
  H      -17.576    -208.977     -43.999
  H      -20.229    -207.404     -44.270
  H      -16.907    -214.463     -43.886
  H      -18.868    -205.701     -45.392
  H      -16.364    -213.004     -44.648
  H      -16.791    -205.933     -43.503
  H      -18.210    -204.879     -41.800
  H      -18.475    -204.107     -43.349
  P      -16.607    -205.909     -46.722
  C      -18.479    -206.603     -48.378
  O      -17.793    -205.546     -47.738
  O      -15.633    -206.829     -47.599
  O      -15.862    -204.750     -46.134
  H      -14.827    -206.326     -47.831
  H      -19.485    -206.265     -48.635
  H      -18.558    -207.484     -47.732
  H      -17.951    -206.878     -49.299
  H      -20.949    -206.198     -38.666
  H      -21.171    -206.846     -40.274
  H      -22.318    -205.696     -39.630

 3  4  5  6  7  8  9  10  11  12  23  26  30  31 0
 6-311+G(2d,p)
 ****
 33  35  36  37  38 0
 6-311+G(2d,p)
 ****
 1  2  13  14  15  16  17  18  19  20  21  22  24  25 0
 3-21G
 ****
 27  28  29  32  34  39  40  41  42  43  44  45  46  47  48  49 0
 3-21G
 ****


