%nproc=1
%NoSave
%Mem=1900MB
#P OB98/GEN NMR

erre ene a

0 1
  C      -52.542     -58.845    -123.005
  O      -52.954     -57.513    -122.688
  P      -53.343     -56.549    -123.914
  C      -55.179     -55.438    -122.420
  O      -54.048     -55.265    -123.255
  C      -54.754     -55.841    -121.003
  O      -53.781     -54.882    -120.490
  C      -55.905     -55.921    -119.996
  O      -55.619     -57.024    -119.123
  C      -55.791     -54.609    -119.239
  O      -56.414     -54.670    -117.966
  C      -54.270     -54.433    -119.209
  N      -53.865     -53.057    -118.933
  C      -53.036     -52.854    -117.836
  O      -52.711     -53.755    -117.067
  N      -52.633     -51.563    -117.623
  C      -53.033     -50.471    -118.338
  O      -52.639     -49.335    -118.104
  C      -53.997     -50.734    -119.416
  C      -54.364     -51.996    -119.658
  O      -54.543     -57.362    -124.584
  O      -52.191     -56.258    -124.814
  H      -55.114     -57.815    -123.940
  H      -57.353     -54.923    -118.082
  H      -52.006     -51.398    -116.850
  H      -54.383     -49.887    -119.968
  H      -55.089     -52.220    -120.429
  H      -53.825     -55.084    -118.447
  H      -56.261     -53.805    -119.818
  H      -56.878     -56.068    -120.470
  H      -54.248     -56.812    -121.066
  H      -55.826     -56.220    -122.829
  H      -55.765     -54.513    -122.410
  P      -56.470     -58.378    -119.304
  C      -54.577     -59.990    -118.489
  O      -55.863     -59.454    -118.284
  O      -55.911     -58.872    -120.722
  O      -57.952     -58.199    -119.296
  H      -54.942     -58.838    -120.781
  H      -54.263     -60.508    -117.577
  H      -53.850     -59.203    -118.706
  H      -54.600     -60.710    -119.311
  H      -52.315     -59.372    -122.102
  H      -51.672     -58.811    -123.627
  H      -53.331     -59.349    -123.523

 3  4  5  6  7  8  9  10  11  12  13  24  28  29  30  31  32 0
 6-311+G(2d,p)
 ****
 33  34 0
 6-311+G(2d,p)
 ****
 1  2  14  15  16  17  18  19  20  21  22  23  25  26  27 0
 3-21G
 ****
 35  36  37  38  39  40  41  42  43  44  45 0
 3-21G
 ****


