%nproc=1
%NoSave
%Mem=1900MB
#P OB98/GEN NMR

erre ene a

0 1
  C      342.145    -328.383    -388.430
  O      343.056    -327.338    -388.133
  P      344.620    -327.634    -387.931
  C      345.136    -325.311    -388.940
  O      345.308    -326.189    -387.835
  C      345.651    -323.921    -388.584
  O      346.944    -324.028    -387.955
  C      345.846    -322.994    -389.776
  O      344.603    -322.486    -390.240
  C      346.798    -321.960    -389.186
  O      346.072    -321.011    -388.389
  C      347.691    -322.832    -388.277
  N      348.974    -323.160    -388.892
  C      349.876    -322.106    -389.049
  O      349.597    -320.969    -388.674
  N      351.106    -322.372    -389.598
  C      351.401    -323.576    -389.981
  N      352.658    -323.794    -390.456
  C      350.456    -324.704    -389.886
  C      349.277    -324.430    -389.332
  O      345.224    -328.543    -388.947
  O      344.735    -328.171    -386.434
  H      346.710    -320.321    -388.122
  H      344.619    -329.150    -386.353
  H      350.740    -325.690    -390.229
  H      348.535    -325.206    -389.206
  H      347.876    -322.322    -387.327
  H      347.360    -321.400    -389.941
  H      346.344    -323.523    -390.595
  H      344.956    -323.471    -387.861
  H      353.321    -323.037    -390.340
  H      344.069    -325.250    -389.176
  H      353.050    -324.725    -390.498
  H      345.667    -325.716    -389.808
  P      344.389    -322.389    -391.824
  C      341.834    -322.568    -391.429
  O      342.890    -321.846    -392.031
  O      344.325    -323.921    -392.283
  O      345.451    -321.628    -392.546
  H      345.176    -324.195    -392.670
  H      340.930    -321.954    -391.460
  H      342.065    -322.804    -390.384
  H      341.647    -323.492    -391.984
  H      341.159    -327.980    -388.526
  H      342.160    -329.105    -387.640
  H      342.429    -328.853    -389.348

 3  4  5  6  7  8  9  10  11  12  13  23  27  28  29  30  32 0
 6-311+G(2d,p)
 ****
 34  35 0
 6-311+G(2d,p)
 ****
 1  2  14  15  16  17  18  19  20  21  22  24  25  26 0
 3-21G
 ****
 31  33  36  37  38  39  40  41  42  43  44  45  46 0
 3-21G
 ****


