%nproc=1
%NoSave
%Mem=1900MB
#P OB98/GEN NMR

erre ene a

0 1
  C     -736.399    2029.270    1434.520
  O     -736.449    2027.849    1434.631
  P     -736.798    2027.260    1436.088
  C     -734.704    2025.659    1436.028
  O     -736.109    2025.791    1436.157
  C     -734.237    2024.317    1436.558
  O     -734.222    2024.322    1437.979
  C     -735.131    2023.124    1436.152
  O     -734.951    2022.735    1434.809
  C     -734.689    2022.109    1437.202
  O     -733.434    2021.503    1436.760
  C     -734.436    2022.980    1438.441
  N     -736.814    2020.378    1442.196
  C     -735.727    2020.101    1441.451
  N     -735.141    2020.811    1440.456
  C     -735.860    2021.938    1440.270
  C     -737.013    2022.381    1440.928
  C     -737.512    2021.555    1441.901
  N     -738.624    2021.816    1442.668
  N     -737.446    2023.584    1440.401
  C     -736.570    2023.875    1439.457
  N     -735.604    2022.966    1439.356
  O     -738.351    2026.931    1435.976
  O     -736.474    2028.143    1437.270
  H     -733.244    2020.738    1437.353
  H     -738.816    2027.084    1436.842
  H     -735.218    2019.183    1441.697
  H     -736.605    2024.806    1438.854
  H     -733.565    2022.641    1439.003
  H     -735.423    2021.273    1437.327
  H     -736.205    2023.379    1436.359
  H     -733.209    2024.151    1436.140
  H     -734.223    2026.473    1436.578
  H     -738.997    2021.091    1443.255
  H     -739.190    2022.606    1442.375
  H     -734.445    2025.796    1434.951
  P     -736.052    2023.210    1433.748
  C     -736.548    2020.803    1432.979
  O     -736.042    2022.069    1432.641
  O     -735.327    2024.465    1433.053
  O     -737.399    2023.491    1434.350
  H     -734.428    2024.216    1432.745
  H     -736.488    2020.135    1432.128
  H     -737.606    2020.916    1433.305
  H     -735.971    2020.363    1433.803
  H     -736.160    2029.541    1433.513
  H     -735.649    2029.653    1435.180
  H     -737.351    2029.682    1434.784

 3  4  5  6  7  8  9  10  11  12  22  25  29  30  31  32 0
 6-311+G(2d,p)
 ****
 33  36  37 0
 6-311+G(2d,p)
 ****
 1  2  13  14  15  16  17  18  19  20  21  23  24  26 0
 3-21G
 ****
 27  28  34  35  38  39  40  41  42  43  44  45  46  47  48 0
 3-21G
 ****


