%nproc=1
%NoSave
%Mem=1900MB
#P OB98/GEN NMR

erre ene a

0 1
  C       37.234    -410.547    -579.634
  O       36.844    -409.269    -579.174
  H       37.107    -410.587    -580.724
  H       36.615    -411.323    -579.180
  H       38.286    -410.732    -579.395
  P       36.856    -409.052    -577.582
  C       37.592    -406.560    -577.868
  O       36.594    -407.472    -577.417
  C       36.996    -405.155    -577.952
  O       36.044    -405.066    -579.025
  C       36.248    -404.718    -576.701
  O       37.115    -404.301    -575.655
  C       35.425    -403.562    -577.254
  O       36.288    -402.410    -577.423
  C       34.996    -404.137    -578.619
  N       33.700    -404.810    -578.569
  C       32.597    -404.088    -579.054
  O       32.737    -402.944    -579.486
  N       31.357    -404.677    -579.004
  C       31.221    -405.882    -578.532
  N       29.955    -406.405    -578.490
  C       32.358    -406.674    -578.034
  C       33.553    -406.098    -578.079
  O       38.407    -409.190    -577.192
  O       35.941    -409.932    -576.790
  H       35.712    -401.659    -577.662
  H       38.538    -408.941    -576.243
  H       32.181    -407.679    -577.635
  H       34.426    -406.615    -577.728
  H       34.950    -403.350    -579.384
  H       34.614    -403.259    -576.600
  H       35.560    -405.497    -576.348
  H       37.818    -404.450    -578.193
  H       29.197    -405.805    -578.789
  H       37.938    -406.885    -578.856
  H       29.729    -407.254    -577.984
  H       38.438    -406.556    -577.178
  P       36.622    -404.544    -574.136
  C       37.673    -406.899    -573.799
  O       37.689    -405.524    -573.446
  O       35.332    -405.485    -574.317
  O       36.308    -403.302    -573.369
  H       34.627    -405.247    -573.697
  H       38.438    -407.415    -573.258
  H       37.849    -407.000    -574.850
  H       36.719    -407.319    -573.556

 6  7  8  9  10  11  12  13  14  15  16  26  30  31  32  33  35 0
 6-311+G(2d,p)
 ****
 37  38 0
 6-311+G(2d,p)
 ****
 1  2  3  4  5  17  18  19  20  21  22  23  24  25 0
 3-21G
 ****
 27  28  29  34  36  39  40  41  42  43  44  45  46 0
 3-21G
 ****


