%nproc=1
%NoSave
%Mem=1900MB
#P OB98/GEN NMR

erre ene a

0 1
  C       16.710    -229.948      46.325
  O       16.708    -228.740      47.065
  P       16.434    -227.380      46.256
  C       15.328    -225.903      48.092
  O       16.489    -226.185      47.321
  C       15.579    -224.703      49.002
  O       16.519    -225.053      50.036
  C       16.179    -223.491      48.302
  O       15.202    -222.803      47.538
  C       16.717    -222.715      49.498
  O       15.647    -222.012      50.150
  C       17.236    -223.844      50.405
  N       21.425    -225.807      52.599
  C       20.148    -225.701      53.029
  N       19.095    -225.145      52.396
  C       19.457    -224.673      51.193
  C       20.722    -224.690      50.632
  C       21.740    -225.294      51.386
  N       23.042    -225.397      50.946
  N       20.715    -224.090      49.390
  C       19.465    -223.727      49.201
  N       18.663    -224.070      50.255
  O       14.881    -227.480      45.891
  O       17.284    -227.191      45.039
  H       16.041    -221.505      50.889
  H       14.698    -227.069      45.024
  H       19.946    -226.118      54.011
  H       19.092    -223.221      48.319
  H       17.042    -223.655      51.467
  H       17.478    -221.976      49.227
  H       17.008    -223.797      47.651
  H       14.627    -224.434      49.478
  H       15.080    -226.770      48.712
  H       23.734    -225.709      51.609
  H       23.301    -224.890      50.110
  H       14.489    -225.713      47.414
  P       15.702    -222.039      46.219
  C       13.425    -221.978      45.032
  O       14.404    -221.229      45.730
  O       15.786    -223.235      45.163
  O       16.944    -221.236      46.393
  H       14.980    -223.782      45.165
  H       12.580    -221.325      44.807
  H       13.076    -222.812      45.649
  H       13.840    -222.355      44.094
  H       16.904    -230.769      46.983
  H       17.472    -229.905      45.575
  H       15.756    -230.082      45.858

 3  4  5  6  7  8  9  10  11  12  22  25  29  30  31  32 0
 6-311+G(2d,p)
 ****
 33  36  37 0
 6-311+G(2d,p)
 ****
 1  2  13  14  15  16  17  18  19  20  21  23  24  26 0
 3-21G
 ****
 27  28  34  35  38  39  40  41  42  43  44  45  46  47  48 0
 3-21G
 ****


