%nproc=1
%NoSave
%Mem=1900MB
#P OB98/GEN NMR

erre ene a

0 1
  C      937.284    -892.929      27.610
  O      937.209    -893.619      26.376
  H      937.991    -893.449      28.263
  H      936.306    -892.929      28.099
  H      937.628    -891.909      27.462
  P      936.419    -892.919      25.192
  C      934.213    -894.319      25.199
  O      934.848    -893.089      25.525
  C      932.858    -894.419      25.898
  O      931.940    -893.489      25.275
  C      932.207    -895.819      25.818
  O      931.524    -896.059      27.066
  C      931.219    -895.679      24.706
  O      930.148    -896.619      24.763
  C      930.748    -894.229      24.904
  N      930.112    -893.679      23.723
  C      928.758    -893.389      23.798
  O      928.080    -893.459      24.814
  N      928.181    -892.949      22.626
  C      928.783    -892.819      21.417
  O      928.210    -892.449      20.406
  C      930.227    -893.149      21.383
  C      930.816    -893.569      22.527
  O      936.635    -893.909      23.961
  O      936.817    -891.509      24.869
  H      937.438    -893.679      23.455
  H      929.647    -896.589      23.913
  H      927.195    -892.729      22.652
  H      930.745    -893.069      20.446
  H      931.858    -893.839      22.536
  H      930.048    -894.169      25.761
  H      931.710    -895.789      23.745
  H      932.920    -896.619      25.631
  H      932.961    -894.099      26.926
  H      934.853    -895.139      25.528
  H      934.085    -894.389      24.111
  P      932.369    -896.679      28.272
  C      932.085    -899.159      27.500
  O      932.952    -898.079      27.743
  O      931.209    -897.089      29.279
  O      933.382    -895.719      28.815
  H      930.401    -897.409      28.829
  H      932.650    -900.000      27.155
  H      931.369    -898.881      26.755
  H      931.576    -899.419      28.405

 6  7  8  9  10  11  12  13  14  15  16  27  31  32  33  34  35 0
 6-311+G(2d,p)
 ****
 36  37 0
 6-311+G(2d,p)
 ****
 1  2  3  4  5  17  18  19  20  21  22  23  24  25 0
 3-21G
 ****
 26  28  29  30  38  39  40  41  42  43  44  45 0
 3-21G
 ****


