%nproc=1
%NoSave
%Mem=1900MB
#P OB98/GEN NMR

erre ene a

0 1
  C     1268.021    -446.431    -885.978
  O     1267.467    -446.476    -887.275
  P     1266.936    -445.172    -888.066
  C     1264.331    -445.076    -888.090
  O     1265.521    -444.719    -887.400
  C     1264.062    -446.585    -888.066
  O     1264.137    -447.086    -886.717
  C     1262.624    -446.860    -888.562
  O     1262.341    -446.940    -889.946
  C     1262.171    -448.069    -887.734
  O     1262.281    -449.304    -888.433
  C     1263.107    -448.052    -886.521
  N     1259.062    -448.919    -883.586
  C     1259.518    -449.653    -884.667
  N     1258.673    -450.617    -885.138
  N     1260.656    -449.435    -885.246
  C     1261.344    -448.374    -884.718
  C     1261.017    -447.626    -883.630
  C     1259.751    -447.901    -882.982
  O     1259.278    -447.229    -882.052
  N     1261.903    -446.597    -883.430
  C     1262.768    -446.723    -884.415
  N     1262.435    -447.769    -885.244
  O     1267.081    -445.186    -889.557
  O     1267.969    -444.038    -887.489
  H     1261.601    -449.335    -889.135
  H     1268.133    -443.417    -888.213
  H     1258.118    -449.108    -883.233
  H     1263.619    -446.057    -884.591
  H     1263.604    -449.029    -886.402
  H     1261.096    -447.959    -887.469
  H     1257.729    -450.704    -884.814
  H     1262.013    -446.032    -888.195
  H     1258.903    -451.049    -886.047
  H     1264.834    -447.140    -888.643
  H     1264.436    -444.710    -889.125
  H     1263.499    -444.546    -887.631
  P     1260.902    -446.773    -890.599
  C     1259.881    -449.033    -891.271
  O     1260.023    -448.071    -890.243
  O     1261.182    -446.959    -892.190
  O     1260.238    -445.482    -890.355
  H     1260.462    -446.540    -892.695
  H     1259.042    -449.693    -891.016
  H     1260.818    -449.631    -891.350
  H     1259.712    -448.553    -892.255
  H     1268.296    -447.419    -885.673
  H     1267.299    -446.035    -885.295
  H     1268.888    -445.805    -885.982

 3  4  5  6  7  8  9  10  11  12  23  26  30  31 0
 6-311+G(2d,p)
 ****
 33  35  36  37  38 0
 6-311+G(2d,p)
 ****
 1  2  13  14  15  16  17  18  19  20  21  22  24  25 0
 3-21G
 ****
 27  28  29  32  34  39  40  41  42  43  44  45  46  47  48  49 0
 3-21G
 ****


