%nproc=1
%NoSave
%Mem=1900MB
#P OB98/GEN NMR

erre ene a

0 1
  C     -255.307    -491.991      92.094
  O     -254.193    -491.940      92.960
  P     -254.319    -492.488      94.460
  C     -251.792    -492.043      94.570
  O     -253.027    -491.996      95.274
  C     -250.621    -491.885      95.543
  O     -250.709    -492.867      96.599
  C     -249.253    -492.092      94.906
  O     -248.871    -490.958      94.147
  C     -248.392    -492.357      96.136
  O     -248.016    -491.119      96.768
  C     -249.359    -493.148      97.032
  N     -246.833    -496.991      99.239
  C     -246.751    -495.655      99.390
  N     -247.431    -494.691      98.739
  C     -248.254    -495.232      97.823
  C     -248.421    -496.577      97.529
  C     -247.680    -497.486      98.300
  N     -247.800    -498.859      98.192
  N     -249.334    -496.734      96.498
  C     -249.702    -495.509      96.180
  N     -249.126    -494.576      96.993
  O     -254.632    -493.942      94.583
  O     -255.499    -491.603      95.086
  H     -247.297    -490.730      96.235
  H     -256.229    -492.187      95.363
  H     -246.050    -495.310     100.148
  H     -250.390    -495.252      95.390
  H     -249.291    -492.834      98.083
  H     -247.472    -492.893      95.896
  H     -249.268    -492.992      94.275
  H     -250.693    -490.887      96.002
  H     -251.776    -491.229      93.840
  H     -247.333    -499.411      98.896
  H     -248.624    -499.230      97.734
  H     -251.716    -493.000      94.039
  P     -247.728    -491.091      93.035
  C     -248.555    -488.851      92.102
  O     -247.432    -489.612      92.492
  O     -247.972    -492.120      91.978
  O     -246.417    -491.432      93.889
  H     -245.828    -492.000      93.356
  H     -248.892    -489.176      91.114
  H     -248.262    -487.800      92.044
  H     -249.367    -488.959      92.825
  H     -255.037    -491.584      91.142
  H     -256.110    -491.420      92.511
  H     -255.618    -493.008      91.973

 3  4  5  6  7  8  9  10  11  12  22  25  29  30  31  32 0
 6-311+G(2d,p)
 ****
 33  36  37 0
 6-311+G(2d,p)
 ****
 1  2  13  14  15  16  17  18  19  20  21  23  24  26 0
 3-21G
 ****
 27  28  34  35  38  39  40  41  42  43  44  45  46  47  48 0
 3-21G
 ****


