%nproc=1
%NoSave
%Mem=1900MB
#P OB98/GEN NMR

erre ene a

0 1
  C        6.613      -6.286     -41.596
  O        6.830      -5.696     -40.330
  P        8.322      -5.484     -39.793
  C       10.086      -6.841     -38.508
  O        8.778      -6.841     -39.070
  C       10.243      -8.003     -37.530
  O        9.333      -7.853     -36.421
  C        9.932      -9.367     -38.133
  O       10.998      -9.814     -38.947
  C        9.696     -10.197     -36.877
  O       10.945     -10.626     -36.312
  C        9.009      -9.182     -35.952
  N        5.229     -12.147     -34.240
  C        6.568     -12.320     -34.267
  N        7.509     -11.498     -34.778
  C        6.939     -10.410     -35.321
  C        5.588     -10.113     -35.401
  C        4.708     -11.030     -34.803
  N        3.347     -10.835     -34.714
  N        5.396      -8.916     -36.065
  C        6.606      -8.507     -36.386
  N        7.571      -9.344     -35.901
  O        8.546      -4.240     -39.000
  O        9.207      -5.473     -41.126
  H       10.791     -10.798     -35.364
  H        9.667      -4.615     -41.202
  H        6.932     -13.236     -33.811
  H        6.834      -7.611     -36.948
  H        9.381      -9.252     -34.923
  H        9.102     -11.094     -37.071
  H        9.001      -9.316     -38.709
  H       11.266      -7.980     -37.133
  H       10.235      -5.892     -37.984
  H        2.830     -11.483     -34.140
  H        2.986      -9.894     -34.848
  H       10.825      -6.920     -39.311
  P       10.688     -10.517     -40.351
  C        9.426     -12.615     -41.115
  O       10.020     -11.937     -40.025
  O       11.822     -10.554     -41.320
  O        9.457      -9.672     -40.930
  H        9.507      -9.652     -41.904
  H        8.452     -12.172     -41.335
  H        9.287     -13.663     -40.842
  H       10.064     -12.560     -42.002
  H        5.562      -6.347     -41.786
  H        7.035      -7.269     -41.608
  H        7.078      -5.689     -42.352

 3  4  5  6  7  8  9  10  11  12  22  25  29  30  31  32 0
 6-311+G(2d,p)
 ****
 33  36  37 0
 6-311+G(2d,p)
 ****
 1  2  13  14  15  16  17  18  19  20  21  23  24  26 0
 3-21G
 ****
 27  28  34  35  38  39  40  41  42  43  44  45  46  47  48 0
 3-21G
 ****


