%nproc=1
%NoSave
%Mem=1900MB
#P OB98/GEN NMR

erre ene a

0 1
  C     -170.752     426.110     286.028
  O     -170.093     424.858     286.044
  H     -171.754     425.976     285.612
  H     -170.202     426.817     285.399
  H     -170.838     426.505     287.045
  P     -168.577     424.841     286.567
  C     -167.780     424.724     284.095
  O     -167.698     424.170     285.402
  C     -167.296     423.696     283.076
  O     -167.340     424.266     281.748
  C     -165.859     423.245     283.279
  O     -165.731     422.294     284.322
  C     -165.542     422.666     281.906
  O     -165.997     421.306     281.792
  C     -166.332     423.600     280.960
  N     -165.458     424.544     280.268
  C     -164.511     423.983     279.413
  O     -164.401     422.767     279.243
  N     -163.669     424.863     278.792
  C     -163.658     426.218     278.968
  O     -162.824     426.947     278.433
  C     -164.686     426.764     279.870
  C     -165.522     425.912     280.478
  O     -168.601     423.727     287.718
  O     -168.062     426.156     287.060
  H     -168.607     424.156     288.593
  H     -165.990     421.095     280.839
  H     -162.972     424.469     278.176
  H     -164.711     427.833     280.026
  H     -166.276     426.287     281.163
  H     -166.860     423.010     280.197
  H     -164.465     422.654     281.713
  H     -165.204     424.115     283.453
  H     -167.979     422.833     283.101
  H     -167.140     425.617     284.032
  H     -168.817     425.018     283.894
  P     -164.911     422.704     285.637
  C     -162.609     422.182     284.471
  O     -163.498     421.943     285.555
  O     -165.715     421.903     286.762
  O     -164.819     424.180     285.856
  H     -166.047     421.036     286.455
  H     -161.728     421.587     284.594
  H     -162.340     423.217     284.452
  H     -163.090     421.922     283.551

 6  7  8  9  10  11  12  13  14  15  16  27  31  32  33  34  35 0
 6-311+G(2d,p)
 ****
 36  37 0
 6-311+G(2d,p)
 ****
 1  2  3  4  5  17  18  19  20  21  22  23  24  25 0
 3-21G
 ****
 26  28  29  30  38  39  40  41  42  43  44  45 0
 3-21G
 ****


