%nproc=1
%NoSave
%Mem=1900MB
#P OB98/GEN NMR

erre ene a

0 1
  C     -293.236      46.141     -40.950
  O     -292.379      46.944     -40.124
  P     -292.861      47.633     -38.760
  C     -293.469      49.965     -39.707
  O     -293.947      48.759     -39.124
  C     -294.592      50.700     -40.447
  O     -295.876      50.357     -39.873
  C     -294.540      52.215     -40.371
  O     -293.514      52.764     -41.181
  C     -295.957      52.585     -40.811
  O     -296.063      52.626     -42.241
  C     -296.788      51.410     -40.258
  N     -297.640      51.800     -39.142
  C     -298.704      52.661     -39.434
  O     -298.837      53.119     -40.570
  N     -299.575      52.992     -38.424
  C     -299.343      52.585     -37.214
  N     -300.251      52.929     -36.262
  C     -298.158      51.790     -36.842
  C     -297.358      51.434     -37.845
  O     -291.742      48.136     -37.903
  O     -293.709      46.509     -37.992
  H     -293.684      46.678     -37.033
  H     -295.507      53.371     -42.544
  H     -297.981      51.510     -35.809
  H     -296.472      50.835     -37.659
  H     -297.409      50.983     -41.049
  H     -296.261      53.566     -40.435
  H     -294.393      52.521     -39.325
  H     -294.580      50.364     -41.497
  H     -301.058      53.468     -36.552
  H     -292.679      49.709     -40.427
  H     -300.180      52.645     -35.294
  H     -293.037      50.598     -38.926
  P     -292.246      53.387     -40.422
  C     -292.996      55.827     -40.902
  O     -292.647      54.857     -39.930
  O     -291.195      53.652     -41.608
  O     -291.662      52.510     -39.367
  H     -290.295      53.440     -41.296
  H     -293.678      56.554     -40.443
  H     -293.488      55.373     -41.767
  H     -292.092      56.351     -41.231
  H     -292.688      45.794     -41.801
  H     -294.069      46.728     -41.277
  H     -293.590      45.302     -40.388

 3  4  5  6  7  8  9  10  11  12  13  24  27  28  29  30  32 0
 6-311+G(2d,p)
 ****
 34  35 0
 6-311+G(2d,p)
 ****
 1  2  14  15  16  17  18  19  20  21  22  23  25  26 0
 3-21G
 ****
 31  33  36  37  38  39  40  41  42  43  44  45  46 0
 3-21G
 ****


