%nproc=1
%NoSave
%Mem=1900MB
#P OB98/GEN NMR

erre ene a

0 1
  C      437.627     115.646    -305.115
  O      436.719     115.579    -306.218
  P      435.620     114.408    -306.179
  C      436.945     112.697    -307.602
  O      436.370     113.001    -306.341
  C      437.446     111.251    -307.669
  O      436.345     110.329    -307.893
  C      438.471     111.008    -308.781
  O      439.390     110.017    -308.313
  C      437.632     110.406    -309.893
  O      438.442     109.678    -310.816
  C      436.642     109.558    -309.075
  N      435.431     109.211    -309.814
  C      435.245     107.863    -310.133
  O      436.113     107.035    -309.854
  N      434.104     107.492    -310.795
  C      433.249     108.394    -311.161
  N      432.136     107.965    -311.818
  C      433.431     109.837    -310.896
  C      434.533     110.167    -310.225
  O      434.840     114.589    -307.563
  O      434.688     114.503    -305.012
  H      437.871     109.387    -311.557
  H      433.877     114.599    -307.407
  H      432.702     110.555    -311.239
  H      434.753     111.196    -309.982
  H      437.114     108.624    -308.750
  H      437.103     111.195    -310.437
  H      439.015     111.907    -309.076
  H      437.890     110.998    -306.699
  H      432.043     106.968    -311.973
  H      437.784     113.373    -307.796
  H      431.408     108.579    -312.146
  H      436.208     112.894    -308.386
  P      440.909     110.453    -308.049
  C      441.699     108.789    -309.836
  O      441.668     110.141    -309.428
  O      441.431     109.251    -307.123
  O      441.172     111.778    -307.420
  H      442.341     109.435    -306.831
  H      442.132     108.734    -310.839
  H      440.691     108.371    -309.866
  H      442.333     108.206    -309.156
  H      438.304     116.462    -305.259
  H      438.179     114.732    -305.052
  H      437.077     115.794    -304.209

 3  4  5  6  7  8  9  10  11  12  13  21  23  27  28  29  30  32 0
 6-311+G(2d,p)
 ****
 34  35 0
 6-311+G(2d,p)
 ****
 1  2  14  15  16  17  18  19  20  22  24  25  26 0
 3-21G
 ****
 31  33  36  37  38  39  40  41  42  43  44  45  46 0
 3-21G
 ****


