%nproc=1
%NoSave
%Mem=1900MB
#P OB98/GEN NMR

erre ene a

0 1
  C      825.580    -398.295    -282.365
  O      825.187    -397.001    -282.761
  H      825.395    -398.406    -281.292
  H      826.645    -398.441    -282.550
  H      824.999    -399.057    -282.900
  P      825.196    -396.695    -284.339
  C      827.022    -396.346    -286.150
  O      826.730    -396.651    -284.795
  C      828.156    -395.319    -286.237
  O      829.292    -395.780    -285.474
  C      828.659    -395.067    -287.661
  O      827.839    -394.134    -288.348
  C      830.034    -394.480    -287.361
  O      829.894    -393.108    -286.935
  C      830.499    -395.351    -286.186
  N      835.100    -397.178    -287.300
  C      834.721    -395.894    -286.933
  N      835.701    -394.962    -286.869
  N      833.473    -395.552    -286.669
  C      832.610    -396.585    -286.776
  C      832.874    -397.899    -287.126
  C      834.244    -398.261    -287.412
  O      834.645    -399.377    -287.715
  N      831.733    -398.659    -287.115
  C      830.779    -397.804    -286.806
  N      831.248    -396.532    -286.588
  O      824.733    -395.158    -284.425
  O      824.310    -397.576    -285.159
  H      829.166    -393.084    -286.300
  H      824.186    -395.040    -285.221
  H      836.062    -397.373    -287.502
  H      829.730    -398.059    -286.697
  H      831.125    -394.807    -285.475
  H      830.686    -394.487    -288.228
  H      836.651    -395.146    -287.114
  H      828.766    -395.997    -288.227
  H      835.434    -394.014    -286.581
  H      827.803    -394.392    -285.775
  H      826.121    -395.933    -286.628
  H      827.306    -397.273    -286.662
  P      828.078    -393.956    -289.928
  C      829.801    -392.492    -291.219
  O      829.527    -393.269    -290.059
  O      827.076    -392.778    -290.316
  O      827.872    -395.178    -290.747
  H      826.869    -392.820    -291.275
  H      830.797    -392.104    -291.161
  H      829.105    -391.681    -291.278
  H      829.707    -393.106    -292.090

 6  7  8  9  10  11  12  13  14  15  26  29  33  34 0
 6-311+G(2d,p)
 ****
 36  38  39  40  41 0
 6-311+G(2d,p)
 ****
 1  2  3  4  5  16  17  18  19  20  21  22  23  24  25 0
 3-21G
 ****
 27  28  30  31  32  35  37  42  43  44  45  46  47 0
 3-21G
 ****
 48  49 0
 3-21G
 ****


