%nproc=1
%NoSave
%Mem=1900MB
#P OB98/GEN NMR

erre ene a

0 1
  C     -891.296    -897.060    -895.720
  O     -891.966    -896.830    -896.950
  H     -890.816    -896.120    -895.430
  H     -890.546    -897.850    -895.850
  H     -891.996    -897.340    -894.930
  P     -893.036    -897.930    -897.450
  C     -895.136    -896.530    -897.900
  O     -894.476    -897.410    -897.020
  C     -895.526    -895.210    -897.200
  O     -894.286    -894.510    -896.830
  C     -896.336    -894.270    -898.140
  O     -897.196    -893.390    -897.410
  C     -895.216    -893.450    -898.800
  O     -895.676    -892.190    -899.300
  C     -894.206    -893.310    -897.640
  N     -890.166    -890.230    -897.790
  C     -891.466    -889.930    -897.370
  N     -891.716    -888.690    -896.970
  N     -892.476    -890.830    -897.430
  C     -892.036    -892.030    -897.940
  C     -890.796    -892.420    -898.380
  C     -889.736    -891.440    -898.310
  O     -888.566    -891.610    -898.670
  N     -890.796    -893.710    -898.820
  C     -892.036    -894.090    -898.670
  N     -892.846    -893.130    -898.090
  O     -892.796    -899.170    -896.450
  O     -892.906    -898.360    -898.870
  H     -896.326    -892.370    -900.000
  H     -893.126    -900.000    -896.860
  H     -889.456    -889.510    -897.720
  H     -892.426    -895.100    -898.930
  H     -894.476    -892.460    -897.010
  H     -894.816    -894.010    -899.650
  H     -891.036    -887.920    -897.140
  H     -896.886    -894.830    -898.900
  H     -892.696    -888.380    -896.990
  H     -896.076    -895.440    -896.280
  H     -896.056    -897.040    -898.250
  H     -894.516    -896.330    -898.800
  P     -898.736    -893.810    -897.250
  C     -899.066    -894.920    -894.850
  O     -898.836    -895.070    -896.250
  O     -899.116    -894.460    -898.680
  O     -899.646    -892.710    -896.900
  H     -899.786    -893.920    -899.130
  H     -899.094    -895.885    -894.388
  H     -900.000    -894.422    -894.693
  H     -898.276    -894.341    -894.419

 6  7  8  9  10  11  12  13  14  15  26  29  33  34 0
 6-311+G(2d,p)
 ****
 36  38  39  40  41 0
 6-311+G(2d,p)
 ****
 1  2  3  4  5  16  17  18  19  20  21  22  23  24  25 0
 3-21G
 ****
 27  28  30  31  32  35  37  42  43  44  45  46  47 0
 3-21G
 ****
 48  49 0
 3-21G
 ****


