%nproc=1
%NoSave
%Mem=1900MB
#P OB98/GEN NMR

erre ene a

0 1
  C     -384.543     713.271    -109.151
  O     -384.418     711.876    -109.244
  H     -383.551     713.731    -109.246
  H     -384.955     713.544    -108.171
  H     -385.198     713.665    -109.941
  P     -385.754     711.030    -109.519
  C     -384.932     710.280    -111.869
  O     -385.934     710.960    -111.112
  C     -385.180     710.453    -113.367
  O     -385.126     711.885    -113.675
  C     -384.156     709.735    -114.274
  O     -384.829     709.251    -115.430
  C     -383.243     710.883    -114.697
  O     -382.555     710.574    -115.919
  C     -384.248     712.024    -114.806
  N     -381.588     715.129    -117.747
  C     -382.309     713.987    -118.061
  N     -382.255     713.558    -119.336
  N     -382.994     713.314    -117.179
  C     -382.962     713.848    -115.939
  C     -382.297     714.955    -115.494
  C     -381.517     715.703    -116.471
  O     -380.846     716.693    -116.257
  N     -382.479     715.145    -114.151
  C     -383.241     714.131    -113.767
  N     -383.571     713.307    -114.824
  O     -386.911     712.040    -109.050
  O     -385.850     709.719    -108.805
  H     -381.995     711.344    -116.150
  H     -387.166     711.850    -108.123
  H     -381.047     715.604    -118.454
  H     -383.569     713.922    -112.753
  H     -384.843     711.971    -115.726
  H     -382.497     711.074    -113.915
  H     -381.770     714.052    -120.076
  H     -383.631     708.917    -113.763
  H     -382.814     712.751    -119.594
  H     -386.197     710.125    -113.595
  H     -384.968     709.208    -111.623
  H     -383.947     710.669    -111.595
  P     -385.404     707.733    -115.387
  C     -387.878     708.566    -115.184
  O     -386.835     707.768    -114.637
  O     -384.444     707.014    -114.332
  O     -385.390     707.037    -116.706
  H     -384.321     706.090    -114.570
  H     -388.752     708.479    -114.573
  H     -388.101     708.230    -116.175
  H     -387.565     709.589    -115.216

 6  7  8  9  10  11  12  13  14  15  26  29  33  34 0
 6-311+G(2d,p)
 ****
 36  38  39  40  41 0
 6-311+G(2d,p)
 ****
 1  2  3  4  5  16  17  18  19  20  21  22  23  24  25 0
 3-21G
 ****
 27  28  30  31  32  35  37  42  43  44  45  46  47 0
 3-21G
 ****
 48  49 0
 3-21G
 ****


