%nproc=1
%NoSave
%Mem=1900MB
#P OB98/GEN NMR

erre ene a

0 1
  C      -50.979     -54.553     -40.248
  O      -51.545     -55.839     -40.081
  H      -51.330     -53.908     -39.438
  H      -51.293     -54.122     -41.203
  H      -49.889     -54.615     -40.203
  P      -51.181     -56.934     -41.195
  C      -53.307     -57.668     -42.475
  O      -52.271     -56.705     -42.350
  C      -54.489     -57.301     -41.583
  O      -54.780     -55.897     -41.692
  C      -55.783     -58.032     -41.921
  O      -55.801     -59.315     -41.316
  C      -56.812     -57.106     -41.290
  O      -56.893     -57.367     -39.874
  C      -56.209     -55.712     -41.531
  N      -59.325     -51.972     -43.161
  C      -59.172     -52.546     -41.948
  N      -58.366     -53.572     -41.599
  C      -57.658     -54.002     -42.656
  C      -57.710     -53.516     -43.954
  C      -58.589     -52.446     -44.192
  N      -58.744     -51.865     -45.431
  N      -56.845     -54.208     -44.774
  C      -56.237     -55.058     -43.971
  N      -56.719     -54.998     -42.687
  O      -51.028     -58.333     -40.701
  O      -49.860     -56.291     -41.834
  H      -57.238     -58.275     -39.774
  H      -49.961     -55.328     -41.928
  H      -59.781     -52.128     -41.152
  H      -55.430     -55.721     -44.261
  H      -56.358     -55.052     -40.668
  H      -57.814     -57.251     -41.698
  H      -55.955     -58.077     -43.002
  H      -54.196     -57.492     -40.542
  H      -52.934     -58.663     -42.204
  H      -59.527     -51.242     -45.554
  H      -58.292     -52.305     -46.219
  H      -53.615     -57.690     -43.526
  P      -56.587     -60.539     -41.993
  C      -58.864     -61.164     -40.974
  O      -58.139     -60.217     -41.751
  O      -56.127     -61.886     -41.556
  O      -56.411     -60.300     -43.563
  H      -56.622     -61.120     -44.051
  H      -59.881     -60.845     -40.881
  H      -58.423     -61.240     -40.002
  H      -58.832     -62.119     -41.455

 6  7  8  9  10  11  12  13  14  15  25  28  32  33  34  35 0
 6-311+G(2d,p)
 ****
 36  39  40 0
 6-311+G(2d,p)
 ****
 1  2  3  4  5  16  17  18  19  20  21  22  23  24 0
 3-21G
 ****
 26  27  29  30  31  37  38  41  42  43  44  45  46  47 0
 3-21G
 ****
 48 0
 3-21G
 ****


