%nproc=1
%NoSave
%Mem=1900MB
#P OB98/GEN NMR

erre ene a

0 1
  C      472.054     331.675    -373.740
  O      473.023     332.679    -374.042
  P      472.631     333.872    -375.025
  C      473.688     333.225    -377.284
  O      473.785     334.049    -376.123
  C      475.082     332.896    -377.838
  O      475.762     334.117    -378.254
  C      475.986     332.211    -376.801
  O      476.879     331.288    -377.444
  C      476.821     333.363    -376.263
  O      478.026     332.894    -375.657
  C      477.018     334.190    -377.537
  N      480.652     337.762    -378.076
  C      480.569     336.488    -378.532
  N      479.560     335.605    -378.366
  C      478.553     336.153    -377.656
  C      478.490     337.443    -377.142
  C      479.613     338.262    -377.362
  N      479.701     339.548    -376.882
  N      477.298     337.647    -376.469
  C      476.672     336.486    -376.549
  N      477.372     335.571    -377.285
  O      472.200     335.143    -374.362
  O      471.428     333.248    -375.884
  H      478.566     332.476    -376.352
  H      470.722     333.916    -375.997
  H      481.426     336.136    -379.094
  H      475.723     336.259    -376.079
  H      477.793     333.762    -378.187
  H      476.250     333.916    -375.516
  H      475.440     331.688    -376.003
  H      474.977     332.273    -378.730
  H      473.093     333.730    -378.044
  H      480.597     340.021    -376.991
  H      479.006     339.877    -376.228
  H      473.139     332.315    -377.025
  P      476.534     329.722    -377.250
  C      477.476     329.273    -374.851
  O      477.646     329.147    -376.247
  O      476.371     328.987    -378.547
  O      475.192     329.780    -376.376
  H      475.246     330.347    -375.587
  H      478.265     328.711    -374.351
  H      476.508     328.876    -374.541
  H      477.555     330.322    -374.557
  H      472.481     330.957    -373.071
  H      471.753     331.186    -374.643
  H      471.202     332.129    -373.279

 3  4  5  6  7  8  9  10  11  12  22  25  29  30  31  32 0
 6-311+G(2d,p)
 ****
 33  36  37 0
 6-311+G(2d,p)
 ****
 1  2  13  14  15  16  17  18  19  20  21  23  24  26 0
 3-21G
 ****
 27  28  34  35  38  39  40  41  42  43  44  45  46  47  48 0
 3-21G
 ****


