%nproc=1
%NoSave
%Mem=1900MB
#P OB98/GEN NMR

erre ene a

0 1
  C      677.635      79.120     708.884
  O      677.599      79.718     710.166
  H      676.621      78.829     708.604
  H      678.271      78.231     708.897
  H      678.017      79.839     708.148
  P      679.016      80.120     710.807
  C      679.265      77.897     712.149
  O      679.728      78.701     711.072
  C      680.450      77.425     712.994
  O      681.158      76.357     712.326
  C      681.507      78.499     713.255
  O      681.127      79.424     714.258
  C      682.664      77.628     713.690
  O      682.432      77.153     715.035
  C      682.565      76.469     712.669
  N      683.370      76.710     711.468
  C      684.700      76.279     711.521
  O      685.159      75.745     712.527
  N      685.507      76.505     710.423
  C      685.023      77.080     709.365
  N      685.866      77.279     708.320
  C      683.623      77.530     709.266
  C      682.865      77.313     710.341
  O      678.630      80.598     712.285
  O      679.834      81.098     710.036
  H      682.458      77.940     715.618
  H      679.452      80.731     712.826
  H      683.268      78.018     708.372
  H      681.824      77.617     710.339
  H      682.874      75.520     713.118
  H      683.620      78.150     713.701
  H      681.786      79.022     712.332
  H      680.051      77.020     713.933
  H      686.840      77.012     708.442
  H      678.737      77.030     711.731
  H      685.628      77.849     707.520
  H      678.576      78.466     712.781
  P      681.926      80.816     714.319
  C      683.753      80.149     716.057
  O      683.440      80.468     714.701
  O      681.361      81.506     715.650
  O      681.754      81.691     713.116
  H      681.317      82.475     715.547
  H      684.799      79.943     716.143
  H      683.194      79.288     716.359
  H      683.500      80.977     716.686

 6  7  8  9  10  11  12  13  14  15  16  26  30  31  32  33  35 0
 6-311+G(2d,p)
 ****
 37  38 0
 6-311+G(2d,p)
 ****
 1  2  3  4  5  17  18  19  20  21  22  23  24  25 0
 3-21G
 ****
 27  28  29  34  36  39  40  41  42  43  44  45  46 0
 3-21G
 ****


