%nproc=1
%NoSave
%Mem=1900MB
#P OB98/GEN NMR

erre ene a

0 1
  C      103.240    -162.163     -16.447
  O      104.038    -161.522     -17.427
  P      105.600    -161.888     -17.479
  C      105.125    -163.099     -19.736
  O      105.748    -163.147     -18.463
  C      106.178    -163.055     -20.850
  O      107.109    -164.150     -20.647
  C      105.618    -163.192     -22.271
  O      106.468    -162.420     -23.129
  C      105.799    -164.669     -22.568
  O      105.806    -164.951     -23.965
  C      107.119    -164.944     -21.855
  N      109.356    -169.291     -23.158
  C      109.354    -168.068     -23.805
  N      110.105    -167.978     -24.927
  N      108.681    -167.024     -23.391
  C      107.992    -167.260     -22.247
  C      107.880    -168.432     -21.539
  C      108.661    -169.565     -21.986
  O      108.761    -170.638     -21.397
  N      107.019    -168.303     -20.485
  C      106.670    -167.034     -20.508
  N      107.267    -166.348     -21.531
  O      105.871    -162.504     -16.029
  O      106.522    -160.751     -17.800
  H      105.921    -165.917     -24.073
  H      106.197    -161.825     -15.410
  H      109.910    -170.049     -23.516
  H      105.998    -166.555     -19.812
  H      107.991    -164.646     -22.454
  H      104.979    -165.239     -22.114
  H      110.671    -168.733     -25.284
  H      104.582    -162.862     -22.365
  H      110.146    -167.087     -25.401
  H      106.745    -162.122     -20.749
  H      104.515    -162.191     -19.800
  H      104.469    -163.968     -19.859
  P      105.875    -161.942     -24.541
  C      105.512    -159.582     -23.532
  O      104.959    -160.657     -24.266
  O      104.806    -163.089     -24.881
  O      106.883    -161.812     -25.634
  H      104.753    -163.209     -25.847
  H      104.955    -158.671     -23.768
  H      106.565    -159.427     -23.775
  H      105.415    -159.787     -22.461
  H      102.229    -161.823     -16.532
  H      103.615    -161.928     -15.473
  H      103.274    -163.222     -16.596

 3  4  5  6  7  8  9  10  11  12  23  26  30  31 0
 6-311+G(2d,p)
 ****
 33  35  36  37  38 0
 6-311+G(2d,p)
 ****
 1  2  13  14  15  16  17  18  19  20  21  22  24  25 0
 3-21G
 ****
 27  28  29  32  34  39  40  41  42  43  44  45  46  47  48  49 0
 3-21G
 ****


