%nproc=1
%NoSave
%Mem=1900MB
#P OB98/GEN NMR

erre ene a

0 1
  C     -776.442     628.218     107.232
  O     -775.304     628.820     107.809
  H     -776.965     628.963     106.622
  H     -777.129     627.851     107.996
  H     -776.141     627.385     106.576
  P     -774.514     628.005     108.948
  C     -772.752     629.821     108.463
  O     -773.347     628.983     109.447
  C     -771.747     630.786     109.091
  O     -770.851     630.065     109.967
  C     -770.833     631.480     108.079
  O     -771.508     632.430     107.268
  C     -769.669     631.923     108.943
  O     -769.875     633.181     109.581
  C     -769.605     630.801     110.005
  N     -768.452     629.930     109.824
  C     -767.329     630.244     110.596
  O     -767.281     631.194     111.368
  N     -766.241     629.435     110.409
  C     -766.143     628.409     109.509
  O     -765.121     627.749     109.354
  C     -767.349     628.149     108.702
  C     -768.430     628.908     108.891
  O     -774.040     626.636     108.554
  O     -775.534     627.999     110.180
  H     -769.067     633.389     110.083
  H     -775.286     627.307     110.844
  H     -765.416     629.631     110.962
  H     -767.303     627.343     107.981
  H     -769.338     628.729     108.313
  H     -769.539     631.239     111.009
  H     -768.750     632.014     108.360
  H     -770.444     630.713     107.394
  H     -772.290     631.517     109.702
  H     -773.555     630.401     107.990
  H     -772.265     629.202     107.701
  P     -771.201     632.601     105.708
  C     -773.694     633.204     105.262
  O     -772.333     633.571     105.085
  O     -770.807     631.373     104.952
  O     -769.908     633.578     105.752
  H     -769.338     633.339     104.996
  H     -774.324     633.935     104.800
  H     -773.916     633.152     106.307
  H     -773.867     632.249     104.812

 6  7  8  9  10  11  12  13  14  15  16  26  31  32  33  34  35 0
 6-311+G(2d,p)
 ****
 36  37 0
 6-311+G(2d,p)
 ****
 1  2  3  4  5  17  18  19  20  21  22  23  24  25 0
 3-21G
 ****
 27  28  29  30  38  39  40  41  42  43  44  45 0
 3-21G
 ****


