%nproc=1
%NoSave
%Mem=1900MB
#P OB98/GEN NMR

erre ene a

0 1
  C     -281.928      -6.229      24.511
  O     -281.003      -6.725      23.566
  H     -281.380      -5.885      25.393
  H     -282.623      -7.016      24.815
  H     -282.480      -5.386      24.088
  P     -281.609      -7.378      22.232
  C     -281.308      -9.855      22.968
  O     -282.212      -8.805      22.645
  C     -282.091     -11.130      23.266
  O     -282.905     -10.939      24.448
  C     -283.062     -11.534      22.166
  O     -282.423     -12.180      21.079
  C     -283.990     -12.465      22.928
  O     -283.464     -13.797      22.996
  C     -284.045     -11.814      24.323
  N     -285.305     -11.108      24.543
  C     -286.292     -11.832      25.207
  O     -286.138     -12.988      25.596
  N     -287.488     -11.192      25.379
  C     -287.802      -9.947      24.916
  O     -288.914      -9.452      25.055
  C     -286.726      -9.236      24.205
  C     -285.545      -9.842      24.050
  O     -280.305      -7.748      21.382
  O     -282.544      -6.498      21.470
  H     -280.207      -7.124      20.640
  H     -283.976     -14.253      23.694
  H     -288.216     -11.696      25.860
  H     -286.942      -8.248      23.822
  H     -284.740      -9.345      23.520
  H     -283.940     -12.577      25.105
  H     -284.962     -12.525      22.448
  H     -283.635     -10.660      21.827
  H     -281.376     -11.938      23.466
  H     -280.726      -9.579      23.854
  H     -280.620     -10.002      22.129
  P     -283.011     -11.925      19.608
  C     -283.809     -14.410      19.253
  O     -284.146     -13.037      19.394
  O     -281.781     -12.420      18.711
  O     -283.434     -10.513      19.380
  H     -281.242     -13.087      19.171
  H     -284.702     -14.985      19.121
  H     -283.297     -14.744      20.131
  H     -283.174     -14.536      18.401

 6  7  8  9  10  11  12  13  14  15  16  27  31  32  33  34  35 0
 6-311+G(2d,p)
 ****
 36  37 0
 6-311+G(2d,p)
 ****
 1  2  3  4  5  17  18  19  20  21  22  23  24  25 0
 3-21G
 ****
 26  28  29  30  38  39  40  41  42  43  44  45 0
 3-21G
 ****


