%nproc=1
%NoSave
%Mem=1900MB
#P OB98/GEN NMR

erre ene a

0 1
  C      -76.482    -157.783     733.099
  O      -76.532    -156.487     732.535
  P      -76.061    -155.207     733.388
  C      -77.946    -154.017     732.092
  O      -77.308    -154.190     733.354
  C      -79.328    -153.391     732.271
  O      -80.268    -154.354     732.794
  C      -79.360    -152.214     733.246
  O      -78.843    -151.046     732.642
  C      -80.843    -152.149     733.579
  O      -81.575    -151.426     732.573
  C      -81.250    -153.643     733.570
  N      -81.371    -154.190     734.921
  C      -82.527    -153.835     735.620
  O      -83.360    -153.067     735.114
  N      -82.698    -154.305     736.905
  C      -81.781    -155.057     737.439
  N      -81.998    -155.484     738.715
  C      -80.531    -155.426     736.743
  C      -80.390    -154.963     735.501
  O      -74.749    -154.629     732.984
  O      -76.083    -155.755     734.897
  H      -81.184    -150.533     732.527
  H      -75.321    -156.354     735.073
  H      -79.789    -156.041     737.231
  H      -79.508    -155.188     734.914
  H      -82.213    -153.782     733.056
  H      -81.036    -151.642     734.535
  H      -78.796    -152.470     734.152
  H      -79.693    -153.068     731.283
  H      -82.855    -155.178     739.165
  H      -78.056    -154.997     731.622
  H      -81.330    -156.033     739.231
  H      -77.318    -153.389     731.451
  P      -77.561    -150.322     733.283
  C      -77.741    -148.552     731.419
  O      -77.593    -148.787     732.810
  O      -76.263    -151.021     733.082
  O      -77.927    -150.226     734.842
  H      -77.145    -150.475     735.366
  H      -78.084    -147.522     731.265
  H      -78.482    -149.234     730.987
  H      -76.783    -148.697     730.919
  H      -76.833    -158.497     732.384
  H      -77.102    -157.817     733.971
  H      -75.473    -158.016     733.370

 3  4  5  6  7  8  9  10  11  12  13  23  27  28  29  30  32 0
 6-311+G(2d,p)
 ****
 34  35 0
 6-311+G(2d,p)
 ****
 1  2  14  15  16  17  18  19  20  21  22  24  25  26 0
 3-21G
 ****
 31  33  36  37  38  39  40  41  42  43  44  45  46 0
 3-21G
 ****


