%nproc=1
%NoSave
%Mem=1900MB
#P OB98/GEN NMR

erre ene a

0 1
  C      -90.195    -295.046      55.852
  O      -90.894    -295.040      57.086
  P      -90.085    -294.649      58.414
  C      -89.962    -292.256      57.410
  O      -89.289    -293.284      58.121
  C      -90.166    -291.025      58.296
  O      -88.886    -290.602      58.844
  C      -90.759    -289.824      57.552
  O      -91.603    -289.081      58.443
  C      -89.552    -288.963      57.248
  O      -89.916    -287.597      57.049
  C      -88.699    -289.213      58.492
  N      -85.199    -285.568      58.410
  C      -86.475    -285.547      58.938
  N      -86.903    -284.365      59.430
  N      -87.261    -286.593      58.983
  C      -86.702    -287.705      58.446
  C      -85.441    -287.852      57.908
  C      -84.589    -286.688      57.852
  O      -83.460    -286.631      57.375
  N      -85.220    -289.142      57.496
  C      -86.356    -289.768      57.743
  N      -87.296    -288.928      58.284
  O      -88.927    -295.756      58.468
  O      -90.897    -294.662      59.665
  H      -89.094    -287.109      56.854
  H      -89.131    -296.412      59.159
  H      -84.639    -284.733      58.387
  H      -86.557    -290.806      57.529
  H      -89.046    -288.613      59.342
  H      -89.052    -289.320      56.340
  H      -86.374    -283.508      59.365
  H      -91.324    -290.084      56.649
  H      -87.851    -284.311      59.782
  H      -90.798    -291.304      59.144
  H      -90.936    -292.627      57.084
  H      -89.385    -291.986      56.519
  P      -92.892    -288.386      57.778
  C      -94.268    -290.480      58.485
  O      -93.912    -289.576      57.457
  O      -92.363    -287.935      56.338
  O      -93.443    -287.245      58.563
  H      -92.885    -287.181      56.005
  H      -95.339    -290.390      58.681
  H      -93.719    -290.289      59.412
  H      -94.048    -291.498      58.149
  H      -90.864    -295.324      55.065
  H      -89.390    -295.749      55.902
  H      -89.804    -294.069      55.659

 3  4  5  6  7  8  9  10  11  12  23  26  30  31 0
 6-311+G(2d,p)
 ****
 33  35  36  37  38 0
 6-311+G(2d,p)
 ****
 1  2  13  14  15  16  17  18  19  20  21  22  24  25 0
 3-21G
 ****
 27  28  29  32  34  39  40  41  42  43  44  45  46  47  48  49 0
 3-21G
 ****


