%nproc=1
%NoSave
%Mem=1900MB
#P OB98/GEN NMR

erre ene a

0 1
  C       71.727     226.067    -255.606
  O       70.923     225.109    -254.912
  P       71.494     224.562    -253.518
  C       73.430     223.080    -254.418
  O       72.160     223.126    -253.779
  C       74.027     221.678    -254.299
  O       74.281     221.321    -252.923
  C       73.112     220.584    -254.834
  O       73.105     220.574    -256.252
  C       73.739     219.349    -254.195
  O       74.905     218.938    -254.927
  C       74.157     219.882    -252.814
  N       72.864     216.429    -249.268
  C       73.870     216.464    -250.169
  N       74.144     217.421    -251.081
  C       73.258     218.425    -250.997
  C       72.184     218.531    -250.128
  C       71.995     217.467    -249.230
  N       70.962     217.424    -248.323
  N       71.499     219.707    -250.344
  C       72.132     220.292    -251.342
  N       73.209     219.560    -251.762
  O       70.173     224.222    -252.682
  O       72.365     225.542    -252.802
  H       75.603     219.604    -254.763
  H       70.055     224.873    -251.967
  H       74.543     215.612    -250.156
  H       71.850     221.236    -251.790
  H       75.133     219.493    -252.497
  H       73.060     218.494    -254.156
  H       72.091     220.725    -254.456
  H       74.980     221.666    -254.843
  H       74.106     223.811    -253.965
  H       70.852     216.590    -247.768
  H       70.259     218.150    -248.346
  H       73.310     223.371    -255.467
  P       72.104     221.578    -257.000
  C       70.577     219.565    -257.474
  O       71.324     220.629    -258.039
  O       73.102     222.385    -257.947
  O       71.244     222.398    -256.100
  H       73.729     221.793    -258.402
  H       70.076     219.025    -258.281
  H       69.826     219.955    -256.782
  H       71.246     218.875    -256.951
  H       71.239     226.351    -256.515
  H       72.680     225.636    -255.832
  H       71.864     226.931    -254.990

 3  4  5  6  7  8  9  10  11  12  22  25  29  30  31  32 0
 6-311+G(2d,p)
 ****
 33  36  37 0
 6-311+G(2d,p)
 ****
 1  2  13  14  15  16  17  18  19  20  21  23  24  26 0
 3-21G
 ****
 27  28  34  35  38  39  40  41  42  43  44  45  46  47  48 0
 3-21G
 ****


