%nproc=1
%NoSave
%Mem=1900MB
#P OB98/GEN NMR

erre ene a

0 1
  C      203.399     -80.891      56.982
  O      202.166     -80.386      56.508
  H      204.207     -80.460      56.384
  H      203.434     -81.980      56.881
  H      203.549     -80.609      58.027
  P      200.814     -80.929      57.170
  C      200.559     -83.076      55.750
  O      200.061     -81.773      56.034
  C      199.602     -83.826      54.825
  O      200.139     -85.121      54.491
  C      198.229     -84.089      55.431
  O      197.452     -82.909      55.440
  C      197.728     -85.195      54.517
  O      197.260     -84.659      53.270
  C      199.021     -86.021      54.304
  N      199.128     -87.173      55.196
  C      198.581     -88.370      54.721
  O      198.036     -88.410      53.619
  N      198.654     -89.485      55.521
  C      199.255     -89.423      56.667
  N      199.296     -90.563      57.410
  C      199.875     -88.190      57.189
  C      199.765     -87.111      56.416
  O      199.956     -79.909      57.853
  O      201.310     -82.058      58.190
  H      196.398     -84.236      53.462
  H      201.424     -81.686      59.084
  H      200.374     -88.186      58.147
  H      200.193     -86.163      56.725
  H      199.078     -86.386      53.271
  H      196.900     -85.753      54.954
  H      198.333     -84.499      56.442
  H      199.516     -83.253      53.892
  H      198.876     -91.391      57.000
  H      200.648     -83.602      56.705
  H      199.872     -90.675      58.232
  H      201.555     -83.018      55.294
  P      196.842     -82.316      56.800
  C      194.514     -83.184      56.134
  O      195.288     -82.051      56.500
  O      197.579     -81.153      57.372
  O      196.791     -83.582      57.775
  H      197.695     -83.782      58.129
  H      193.502     -82.884      55.960
  H      194.542     -83.905      56.924
  H      194.915     -83.617      55.242

 6  7  8  9  10  11  12  13  14  15  16  26  30  31  32  33  35 0
 6-311+G(2d,p)
 ****
 37  38 0
 6-311+G(2d,p)
 ****
 1  2  3  4  5  17  18  19  20  21  22  23  24  25 0
 3-21G
 ****
 27  28  29  34  36  39  40  41  42  43  44  45  46 0
 3-21G
 ****


