%nproc=1
%NoSave
%Mem=1900MB
#P OB98/GEN NMR

erre ene a

0 1
  C      -30.275     941.125    -210.982
  O      -30.515     940.363    -209.813
  H      -29.313     941.631    -210.880
  H      -31.058     941.880    -211.106
  H      -30.243     940.471    -211.861
  P      -31.897     939.555    -209.758
  C      -32.029     940.043    -207.212
  O      -32.069     939.063    -208.236
  C      -32.094     939.381    -205.841
  O      -33.417     938.855    -205.589
  C      -31.123     938.222    -205.642
  O      -29.835     938.694    -205.284
  C      -31.799     937.457    -204.517
  O      -31.520     938.046    -203.230
  C      -33.282     937.599    -204.871
  N      -37.399     934.856    -205.898
  C      -37.237     935.937    -205.067
  N      -38.327     936.308    -204.345
  N      -36.108     936.586    -204.925
  C      -35.103     936.078    -205.674
  C      -35.142     935.024    -206.555
  C      -36.400     934.331    -206.720
  O      -36.624     933.408    -207.500
  N      -33.920     934.823    -207.140
  C      -33.137     935.731    -206.592
  N      -33.805     936.510    -205.672
  O      -31.578     938.199    -210.548
  O      -33.081     940.263    -210.336
  H      -30.609     937.826    -202.963
  H      -32.391     937.887    -210.985
  H      -38.289     934.403    -205.976
  H      -32.085     935.864    -206.814
  H      -33.920     937.668    -203.978
  H      -31.446     936.427    -204.462
  H      -39.082     935.665    -204.164
  H      -31.085     937.591    -206.536
  H      -38.214     937.095    -203.715
  H      -31.916     940.160    -205.085
  H      -32.876     940.721    -207.330
  H      -31.096     940.618    -207.305
  P      -28.661     938.550    -206.382
  C      -26.781     937.273    -205.115
  O      -27.278     938.528    -205.565
  O      -28.639     939.987    -207.088
  O      -28.855     937.443    -207.367
  H      -28.165     939.935    -207.938
  H      -25.860     937.421    -204.591
  H      -26.614     936.633    -205.956
  H      -27.495     936.821    -204.459

 6  7  8  9  10  11  12  13  14  15  26  29  33  34 0
 6-311+G(2d,p)
 ****
 36  38  39  40  41 0
 6-311+G(2d,p)
 ****
 1  2  3  4  5  16  17  18  19  20  21  22  23  24  25 0
 3-21G
 ****
 27  28  30  31  32  35  37  42  43  44  45  46  47 0
 3-21G
 ****
 48  49 0
 3-21G
 ****


