%nproc=1
%NoSave
%Mem=1900MB
#P OB98/GEN NMR

erre ene a

0 1
  C      113.621      36.099    -120.341
  O      113.738      35.056    -121.288
  H      112.681      36.637    -120.486
  H      113.628      35.666    -119.337
  H      114.464      36.790    -120.434
  P      113.713      35.479    -122.836
  C      116.264      35.784    -122.430
  O      115.095      36.260    -123.080
  C      117.360      35.558    -123.467
  O      117.533      36.746    -124.274
  C      118.728      35.266    -122.862
  O      118.879      33.907    -122.488
  C      119.635      35.620    -124.028
  O      119.607      34.564    -125.005
  C      118.948      36.877    -124.583
  N      122.788      40.264    -124.589
  C      122.559      39.159    -125.331
  N      121.502      38.323    -125.282
  C      120.616      38.728    -124.359
  C      120.709      39.836    -123.533
  C      121.863      40.627    -123.668
  N      122.115      41.736    -122.894
  N      119.612      39.913    -122.697
  C      118.864      38.880    -123.028
  N      119.444      38.115    -124.005
  O      112.624      36.651    -122.893
  O      113.443      34.382    -123.809
  H      119.996      33.774    -124.582
  H      112.365      36.830    -123.817
  H      123.328      38.911    -126.055
  H      117.906      38.637    -122.586
  H      119.044      36.966    -125.671
  H      120.677      35.754    -123.728
  H      118.949      35.935    -122.023
  H      117.042      34.747    -124.133
  H      116.034      34.840    -121.926
  H      123.033      42.147    -122.962
  H      121.509      41.928    -122.110
  H      116.593      36.518    -121.689
  P      119.826      33.585    -121.231
  C      117.877      32.631    -119.802
  O      118.884      33.628    -119.932
  O      120.704      34.914    -121.095
  O      120.669      32.362    -121.384
  H      121.595      34.710    -120.756
  H      117.334      32.789    -118.893
  H      118.334      31.663    -119.782
  H      117.206      32.691    -120.633

 6  7  8  9  10  11  12  13  14  15  25  28  32  33  34  35 0
 6-311+G(2d,p)
 ****
 36  39  40 0
 6-311+G(2d,p)
 ****
 1  2  3  4  5  16  17  18  19  20  21  22  23  24 0
 3-21G
 ****
 26  27  29  30  31  37  38  41  42  43  44  45  46  47 0
 3-21G
 ****
 48 0
 3-21G
 ****


