%nproc=1
%NoSave
%Mem=1900MB
#P OB98/GEN NMR

erre ene a

0 1
  C      309.050    -376.902    -298.060
  O      309.251    -378.281    -298.295
  H      309.578    -376.623    -297.146
  H      307.983    -376.706    -297.923
  H      309.437    -376.304    -298.890
  P      308.845    -378.835    -299.748
  C      307.569    -380.823    -298.669
  O      308.580    -380.408    -299.576
  C      307.691    -382.315    -298.380
  O      307.512    -383.080    -299.593
  C      309.041    -382.734    -297.806
  O      309.096    -382.530    -296.400
  C      309.042    -384.217    -298.144
  O      308.193    -384.924    -297.217
  C      308.406    -384.222    -299.544
  N      311.378    -386.824    -302.728
  C      310.590    -387.274    -301.686
  N      310.598    -388.604    -301.453
  N      309.861    -386.490    -300.933
  C      309.966    -385.179    -301.267
  C      310.718    -384.612    -302.270
  C      311.505    -385.493    -303.101
  O      312.214    -385.146    -304.046
  N      310.570    -383.251    -302.303
  C      309.751    -382.992    -301.304
  N      309.357    -384.129    -300.642
  O      310.230    -378.766    -300.550
  O      307.775    -378.066    -300.443
  H      308.443    -384.630    -296.322
  H      310.218    -377.986    -301.135
  H      311.928    -387.468    -303.268
  H      309.405    -382.007    -301.023
  H      307.805    -385.119    -299.720
  H      310.034    -384.665    -298.074
  H      311.155    -389.259    -301.979
  H      309.872    -382.238    -298.320
  H      310.025    -388.954    -300.697
  H      306.878    -382.591    -297.697
  H      306.588    -380.614    -299.112
  H      307.671    -380.252    -297.738
  P      310.227    -381.551    -295.819
  C      311.212    -383.018    -293.922
  O      310.396    -381.908    -294.261
  O      309.484    -380.135    -295.800
  O      311.489    -381.496    -296.610
  H      309.883    -379.541    -296.469
  H      311.232    -383.135    -292.859
  H      312.206    -382.853    -294.281
  H      310.814    -383.904    -294.371

 6  7  8  9  10  11  12  13  14  15  26  29  33  34 0
 6-311+G(2d,p)
 ****
 36  38  39  40  41 0
 6-311+G(2d,p)
 ****
 1  2  3  4  5  16  17  18  19  20  21  22  23  24  25 0
 3-21G
 ****
 27  28  30  31  32  35  37  42  43  44  45  46  47 0
 3-21G
 ****
 48  49 0
 3-21G
 ****


