%nproc=1
%NoSave
%Mem=1900MB
#P OB98/GEN NMR

erre ene a

0 1
  C      641.493      64.355    -764.486
  O      641.261      65.763    -764.365
  P      641.212      66.635    -765.726
  C      643.392      68.019    -765.294
  O      641.983      68.001    -765.446
  C      643.820      69.113    -764.283
  O      644.029      70.350    -765.017
  C      642.788      69.448    -763.220
  O      643.455      70.146    -762.137
  C      641.881      70.414    -763.936
  O      641.102      71.192    -763.027
  C      642.888      71.235    -764.799
  N      642.337      71.663    -766.108
  C      641.238      72.516    -766.100
  O      640.692      72.937    -765.075
  N      640.740      72.869    -767.325
  C      641.246      72.482    -768.542
  O      640.708      72.745    -769.606
  C      642.499      71.697    -768.496
  C      642.957      71.330    -767.303
  O      639.662      67.041    -765.835
  O      641.672      65.878    -766.938
  H      640.641      71.876    -763.573
  H      639.232      66.518    -766.532
  H      639.897      73.432    -767.334
  H      642.948      71.449    -769.439
  H      643.869      70.725    -767.255
  H      643.236      72.134    -764.277
  H      641.202      69.880    -764.590
  H      642.244      68.597    -762.815
  H      644.779      68.830    -763.835
  H      643.877      68.169    -766.251
  H      643.733      67.045    -764.913
  P      644.083      69.251    -760.941
  C      642.101      69.752    -759.396
  O      643.510      69.850    -759.580
  O      645.560      69.037    -760.990
  O      643.269      67.862    -761.089
  H      643.755      67.145    -760.624
  H      641.893      69.684    -758.315
  H      641.679      68.873    -759.878
  H      641.627      70.665    -759.784
  H      641.500      63.910    -763.513
  H      642.437      64.189    -764.961
  H      640.715      63.915    -765.074

 3  4  5  6  7  8  9  10  11  12  13  23  28  29  30  31  32 0
 6-311+G(2d,p)
 ****
 33  34 0
 6-311+G(2d,p)
 ****
 1  2  14  15  16  17  18  19  20  21  22  24  25  26  27 0
 3-21G
 ****
 35  36  37  38  39  40  41  42  43  44  45 0
 3-21G
 ****


