%nproc=1
%NoSave
%Mem=1900MB
#P OB98/GEN NMR

erre ene a

0 1
  C      -41.804    -663.291     152.153
  O      -41.376    -661.944     152.282
  H      -40.999    -663.864     151.695
  H      -42.686    -663.337     151.509
  H      -42.030    -663.711     153.136
  P      -42.344    -660.958     153.103
  C      -43.548    -659.761     151.092
  O      -43.612    -660.707     152.150
  C      -44.933    -659.547     150.482
  O      -45.852    -659.142     151.532
  C      -44.971    -658.476     149.391
  O      -45.891    -658.887     148.374
  C      -45.507    -657.248     150.105
  O      -46.116    -656.317     149.205
  C      -46.456    -657.887     151.141
  N      -46.677    -657.019     152.295
  C      -47.420    -655.849     152.065
  O      -47.821    -655.576     150.934
  N      -47.640    -654.994     153.116
  C      -47.119    -655.244     154.277
  N      -47.356    -654.346     155.265
  C      -46.289    -656.441     154.552
  C      -46.124    -657.282     153.529
  O      -41.535    -659.576     153.029
  O      -42.665    -661.422     154.491
  H      -46.597    -655.651     149.745
  H      -41.141    -659.406     152.158
  H      -45.865    -656.598     155.534
  H      -45.532    -658.189     153.649
  H      -47.423    -658.115     150.679
  H      -44.688    -656.729     150.620
  H      -43.999    -658.283     148.944
  H      -45.306    -660.510     150.105
  H      -47.920    -653.529     155.041
  H      -42.859    -660.108     150.316
  H      -46.953    -654.415     156.197
  H      -43.164    -658.825     151.500
  P      -45.381    -659.850     147.200
  C      -45.061    -658.210     145.236
  O      -44.423    -659.019     146.214
  O      -46.441    -660.650     146.520
  O      -44.343    -660.812     147.956
  H      -44.442    -661.718     147.583
  H      -44.320    -657.712     144.647
  H      -45.678    -657.483     145.722
  H      -45.665    -658.826     144.603

 6  7  8  9  10  11  12  13  14  15  16  26  30  31  32  33  35 0
 6-311+G(2d,p)
 ****
 37  38 0
 6-311+G(2d,p)
 ****
 1  2  3  4  5  17  18  19  20  21  22  23  24  25 0
 3-21G
 ****
 27  28  29  34  36  39  40  41  42  43  44  45  46 0
 3-21G
 ****


