%nproc=1
%NoSave
%Mem=1900MB
#P OB98/GEN NMR

erre ene a

0 1
  C      293.406    -874.001     690.057
  O      293.987    -875.289     690.103
  H      293.126    -873.710     691.077
  H      292.500    -874.021     689.442
  H      294.107    -873.268     689.665
  P      294.579    -875.919     688.751
  C      292.730    -877.668     688.358
  O      293.325    -876.455     687.903
  C      291.427    -877.941     687.615
  O      291.586    -877.533     686.229
  C      291.000    -879.409     687.637
  O      289.581    -879.478     687.745
  C      291.426    -879.916     686.269
  O      290.642    -881.023     685.830
  C      291.246    -878.665     685.401
  N      291.463    -880.130     680.577
  C      290.412    -880.165     681.464
  N      289.246    -880.685     681.023
  N      290.494    -879.716     682.694
  C      291.709    -879.207     683.007
  C      292.831    -879.118     682.208
  C      292.728    -879.624     680.845
  O      293.625    -879.629     680.011
  N      293.880    -878.563     682.885
  C      293.406    -878.324     684.099
  N      292.094    -878.706     684.215
  O      295.674    -876.919     688.938
  O      295.070    -874.644     687.916
  H      289.710    -880.841     686.105
  H      296.036    -874.532     687.992
  H      291.351    -880.490     679.645
  H      293.956    -877.881     684.910
  H      290.213    -878.546     685.052
  H      292.485    -880.225     686.294
  H      289.111    -881.028     680.082
  H      291.469    -879.980     688.444
  H      288.454    -880.703     681.655
  H      290.639    -877.298     688.046
  H      292.533    -877.570     689.435
  H      293.443    -878.495     688.204
  P      288.945    -879.974     689.134
  C      289.792    -882.375     688.782
  O      289.776    -881.245     689.644
  O      287.449    -880.133     689.143
  O      289.397    -878.819     690.168
  H      288.721    -878.739     690.867
  H      290.374    -883.155     689.227
  H      290.223    -882.100     687.842
  H      288.791    -882.721     688.628

 6  7  8  9  10  11  12  13  14  15  26  29  33  34 0
 6-311+G(2d,p)
 ****
 36  38  39  40  41 0
 6-311+G(2d,p)
 ****
 1  2  3  4  5  16  17  18  19  20  21  22  23  24  25 0
 3-21G
 ****
 27  28  30  31  32  35  37  42  43  44  45  46  47 0
 3-21G
 ****
 48  49 0
 3-21G
 ****


