%nproc=1
%NoSave
%Mem=1900MB
#P OB98/GEN NMR

erre ene a

0 1
  C      617.963    -492.106     -73.498
  O      616.917    -492.888     -72.951
  H      618.372    -492.586     -74.392
  H      617.556    -491.130     -73.776
  H      618.750    -491.959     -72.747
  P      617.284    -494.400     -72.576
  C      618.582    -496.278     -73.814
  O      617.800    -495.102     -73.930
  C      619.310    -496.558     -75.121
  O      620.133    -495.433     -75.489
  C      620.261    -497.753     -75.081
  O      619.570    -498.991     -75.194
  C      621.123    -497.475     -76.306
  O      620.422    -497.906     -77.493
  C      621.233    -495.944     -76.289
  N      625.763    -493.766     -77.355
  C      624.717    -494.121     -78.157
  N      623.553    -494.705     -77.802
  C      623.506    -494.899     -76.473
  C      624.482    -494.590     -75.550
  C      625.655    -494.000     -76.026
  N      626.714    -493.653     -75.221
  N      624.074    -494.926     -74.273
  C      622.858    -495.428     -74.425
  N      622.482    -495.445     -75.747
  O      615.860    -495.087     -72.330
  O      618.186    -494.568     -71.391
  H      620.205    -498.847     -77.357
  H      615.939    -495.741     -71.611
  H      624.848    -493.910     -79.210
  H      622.227    -495.790     -73.621
  H      621.111    -495.520     -77.301
  H      622.080    -497.994     -76.289
  H      620.900    -497.727     -74.185
  H      618.558    -496.700     -75.913
  H      617.926    -497.125     -73.578
  H      627.437    -493.057     -75.590
  H      626.623    -493.822     -74.224
  H      619.303    -496.153     -72.998
  P      620.298    -500.298     -74.621
  C      622.824    -500.757     -74.986
  O      621.555    -500.558     -75.588
  O      619.286    -501.474     -75.008
  O      620.589    -500.278     -73.157
  H      619.405    -502.224     -74.400
  H      623.559    -500.917     -75.747
  H      622.784    -501.612     -74.344
  H      623.086    -499.892     -74.413

 6  7  8  9  10  11  12  13  14  15  25  28  32  33  34  35 0
 6-311+G(2d,p)
 ****
 36  39  40 0
 6-311+G(2d,p)
 ****
 1  2  3  4  5  16  17  18  19  20  21  22  23  24 0
 3-21G
 ****
 26  27  29  30  31  37  38  41  42  43  44  45  46  47  48 0
 3-21G
 ****


