%nproc=1
%NoSave
%Mem=1900MB
#P OB98/GEN NMR

erre ene a

0 1
  C       92.642      49.507      57.158
  O       92.752      48.287      56.460
  H       93.256      50.256      56.650
  H       93.013      49.382      58.179
  H       91.608      49.861      57.185
  P       91.644      47.159      56.704
  C       92.266      46.191      54.394
  O       92.003      45.908      55.763
  C       92.543      44.919      53.592
  O       93.791      44.326      54.011
  C       91.472      43.850      53.810
  O       90.315      43.978      53.004
  C       92.235      42.573      53.473
  O       92.208      42.317      52.059
  C       93.658      42.896      53.933
  N       96.593      39.612      56.521
  C       96.556      39.861      55.163
  N       97.362      39.097      54.393
  N       95.785      40.763      54.617
  C       94.965      41.382      55.498
  C       94.901      41.210      56.862
  C       95.799      40.246      57.465
  O       95.866      39.982      58.661
  N       93.945      42.020      57.428
  C       93.384      42.623      56.400
  N       93.986      42.289      55.210
  O       90.335      47.757      55.996
  O       91.375      46.824      58.139
  H       91.362      41.887      51.841
  H       89.535      47.390      56.413
  H       97.226      38.925      56.889
  H       92.561      43.327      56.464
  H       94.403      42.545      53.209
  H       91.793      41.698      53.960
  H       97.884      38.314      54.755
  H       91.183      43.810      54.865
  H       97.172      39.062      53.390
  H       92.647      45.177      52.531
  H       93.141      46.844      54.371
  H       91.434      46.747      53.955
  P       88.862      43.856      53.664
  C       87.904      45.109      51.594
  O       87.795      44.016      52.479
  O       88.729      45.223      54.484
  O       88.665      42.664      54.536
  H       88.968      45.080      55.419
  H       87.117      45.062      50.870
  H       88.850      45.071      51.096
  H       87.827      46.023      52.145

 6  7  8  9  10  11  12  13  14  15  26  29  33  34 0
 6-311+G(2d,p)
 ****
 36  38  39  40  41 0
 6-311+G(2d,p)
 ****
 1  2  3  4  5  16  17  18  19  20  21  22  23  24  25 0
 3-21G
 ****
 27  28  30  31  32  35  37  42  43  44  45  46  47 0
 3-21G
 ****
 48  49 0
 3-21G
 ****


