%nproc=1
%NoSave
%Mem=1900MB
#P OB98/GEN NMR

erre ene a

0 1
  C      -48.207     -45.921      78.045
  O      -49.383     -46.022      78.824
  H      -47.744     -44.949      78.229
  H      -48.453     -45.999      76.983
  H      -47.499     -46.709      78.319
  P      -50.161     -47.423      78.791
  C      -48.711     -48.829      80.434
  O      -49.916     -48.108      80.223
  C      -48.445     -48.964      81.935
  O      -48.070     -47.660      82.457
  C      -49.668     -49.441      82.727
  O      -49.232     -50.300      83.785
  C      -50.230     -48.155      83.307
  O      -51.021     -48.349      84.471
  C      -48.943     -47.366      83.567
  N      -49.178     -45.928      83.673
  C      -49.186     -45.372      84.949
  O      -48.936     -45.989      85.984
  N      -49.501     -44.039      85.011
  C      -49.823     -43.236      83.956
  O      -50.119     -42.054      84.078
  C      -49.806     -43.882      82.635
  C      -49.491     -45.177      82.557
  O      -49.274     -48.316      77.803
  O      -51.592     -47.357      78.376
  H      -49.586     -48.220      76.882
  H      -50.503     -48.891      85.101
  H      -49.509     -43.620      85.928
  H      -50.065     -43.279      81.775
  H      -49.483     -45.687      81.599
  H      -48.450     -47.729      84.478
  H      -50.851     -47.647      82.559
  H      -50.400     -49.961      82.107
  H      -47.589     -49.632      82.086
  H      -47.882     -48.288      79.968
  H      -48.797     -49.819      79.974
  P      -50.075     -51.643      84.040
  C      -48.623     -53.599      83.090
  O      -48.991     -52.816      84.212
  O      -50.712     -51.896      82.598
  O      -51.059     -51.510      85.155
  H      -50.116     -51.662      81.865
  H      -47.896     -54.327      83.386
  H      -48.207     -52.966      82.334
  H      -49.488     -54.096      82.703

 6  7  8  9  10  11  12  13  14  15  16  27  31  32  33  34  35 0
 6-311+G(2d,p)
 ****
 36  37 0
 6-311+G(2d,p)
 ****
 1  2  3  4  5  17  18  19  20  21  22  23  24  25 0
 3-21G
 ****
 26  28  29  30  38  39  40  41  42  43  44  45 0
 3-21G
 ****


