%nproc=1
%NoSave
%Mem=1900MB
#P OB98/GEN NMR

erre ene a

0 1
  C     -849.897    1054.241     421.329
  O     -850.059    1055.285     422.297
  P     -848.803    1055.710     423.225
  C     -848.111    1057.753     421.736
  O     -848.524    1057.267     423.014
  C     -848.388    1059.245     421.611
  O     -849.802    1059.521     421.707
  C     -847.744    1060.102     422.714
  O     -846.341    1060.281     422.485
  C     -848.544    1061.394     422.590
  O     -848.039    1062.234     421.550
  C     -849.952    1060.860     422.229
  N     -850.873    1060.899     423.378
  C     -851.053    1062.130     423.967
  O     -850.443    1063.138     423.649
  N     -851.944    1062.165     425.021
  C     -852.604    1061.074     425.542
  O     -853.373    1061.159     426.497
  C     -852.312    1059.780     424.914
  C     -851.453    1059.747     423.884
  O     -847.576    1055.050     422.438
  O     -848.858    1055.240     424.635
  H     -848.450    1063.107     421.644
  H     -846.860    1054.840     423.068
  H     -852.105    1063.048     425.464
  H     -852.787    1058.897     425.318
  H     -851.228    1058.807     423.389
  H     -850.383    1061.452     421.408
  H     -848.523    1061.988     423.531
  H     -847.926    1059.651     423.687
  H     -848.045    1059.582     420.612
  H     -848.655    1057.223     420.958
  H     -847.035    1057.541     421.611
  P     -845.446    1060.550     423.784
  C     -843.430    1059.011     423.105
  O     -843.929    1060.316     423.292
  O     -845.784    1059.244     424.675
  O     -845.739    1061.847     424.446
  H     -845.960    1058.487     424.122
  H     -844.209    1058.341     422.737
  H     -843.018    1058.632     424.040
  H     -842.635    1059.051     422.348
  H     -850.820    1054.091     420.808
  H     -849.616    1053.335     421.825
  H     -849.134    1054.517     420.631

 3  4  5  6  7  8  9  10  11  12  13  23  28  29  30  31  32 0
 6-311+G(2d,p)
 ****
 33  34 0
 6-311+G(2d,p)
 ****
 1  2  14  15  16  17  18  19  20  21  22  24  25  26 0
 3-21G
 ****
 27  35  36  37  38  39  40  41  42  43  44  45 0
 3-21G
 ****


