%nproc=1
%NoSave
%Mem=1900MB
#P OB98/GEN NMR

erre ene a

0 1
  C     -210.331     146.069      -4.729
  O     -211.412     146.771      -4.110
  P     -212.311     147.751      -5.009
  C     -210.742     149.697      -4.365
  O     -212.091     149.254      -4.480
  C     -210.684     151.142      -3.877
  O     -211.337     152.043      -4.798
  C     -211.384     151.356      -2.542
  O     -210.605     150.836      -1.474
  C     -211.569     152.868      -2.536
  O     -210.369     153.532      -2.102
  C     -211.831     153.161      -4.035
  N     -213.229     153.437      -4.326
  C     -213.554     154.774      -4.564
  O     -212.694     155.652      -4.486
  N     -214.856     155.086      -4.876
  C     -215.756     154.150      -4.932
  N     -217.028     154.521      -5.249
  C     -215.455     152.726      -4.673
  C     -214.190     152.451      -4.368
  O     -213.738     147.340      -5.184
  O     -211.536     147.757      -6.413
  H     -210.559     154.492      -2.171
  H     -212.182     147.900      -7.128
  H     -216.233     151.979      -4.738
  H     -213.877     151.424      -4.161
  H     -211.243     154.038      -4.354
  H     -212.371     153.177      -1.859
  H     -212.364     150.861      -2.560
  H     -209.625     151.434      -3.797
  H     -217.206     155.497      -5.410
  H     -210.247     149.609      -5.340
  H     -217.784     153.859      -5.363
  H     -210.207     149.026      -3.685
  P     -211.029     149.410      -0.875
  C     -212.684     150.274       0.935
  O     -211.451     149.635       0.656
  O     -209.625     148.638      -0.757
  O     -212.000     148.641      -1.713
  H     -209.767     147.689      -0.922
  H     -212.969     150.064       1.968
  H     -213.475     149.911       0.270
  H     -212.568     151.354       0.805
  H     -209.835     145.463      -4.000
  H     -209.637     146.773      -5.139
  H     -210.712     145.446      -5.511

 3  4  5  6  7  8  9  10  11  12  13  23  27  28  29  30  32 0
 6-311+G(2d,p)
 ****
 34  35 0
 6-311+G(2d,p)
 ****
 1  2  14  15  16  17  18  19  20  21  22  24  25  26 0
 3-21G
 ****
 31  33  36  37  38  39  40  41  42  43  44  45  46 0
 3-21G
 ****


