%nproc=1
%NoSave
%Mem=1900MB
#P OB98/GEN NMR

erre ene a

0 1
  C      -98.300     -11.133    -106.379
  O      -98.152     -10.994    -104.980
  P      -99.400     -10.573    -104.066
  C      -98.645     -11.996    -102.052
  O      -99.630     -11.809    -103.065
  C      -98.301     -13.478    -101.896
  O      -97.710     -13.990    -103.107
  C      -97.298     -13.770    -100.789
  O      -97.925     -13.717     -99.521
  C      -96.805     -15.152    -101.197
  O      -97.708     -16.178    -100.754
  C      -96.806     -15.054    -102.738
  N      -95.471     -14.843    -103.282
  C      -94.600     -15.937    -103.204
  O      -94.963     -16.985    -102.669
  N      -93.322     -15.796    -103.689
  C      -92.945     -14.659    -104.184
  N      -91.663     -14.580    -104.637
  C      -93.822     -13.474    -104.256
  C      -95.058     -13.635    -103.790
  O     -100.610     -10.117    -104.809
  O      -98.782      -9.449    -103.106
  H      -97.303     -17.029    -101.016
  H      -98.645      -8.598    -103.589
  H      -93.458     -12.545    -104.667
  H      -95.768     -12.817    -103.802
  H      -97.215     -15.971    -103.181
  H      -95.824     -15.381    -100.770
  H      -96.468     -13.055    -100.842
  H      -99.235     -14.026    -101.715
  H      -91.086     -15.405    -104.542
  H      -99.047     -11.618    -101.107
  H      -91.257     -13.735    -105.007
  H      -97.752     -11.415    -102.303
  P      -97.826     -12.387     -98.637
  C     -100.185     -12.436     -97.629
  O      -99.300     -11.773     -98.510
  O      -96.766     -11.421     -99.050
  O      -97.540     -12.942     -97.161
  H      -96.839     -12.401     -96.750
  H     -101.004     -11.759     -97.377
  H      -99.674     -12.734     -96.709
  H     -100.595     -13.321     -98.123
  H      -97.363     -11.417    -106.810
  H      -98.618     -10.201    -106.798
  H      -99.031     -11.886    -106.587

 3  4  5  6  7  8  9  10  11  12  13  23  27  28  29  30  32 0
 6-311+G(2d,p)
 ****
 34  35 0
 6-311+G(2d,p)
 ****
 1  2  14  15  16  17  18  19  20  21  22  24  25  26 0
 3-21G
 ****
 31  33  36  37  38  39  40  41  42  43  44  45  46 0
 3-21G
 ****


