%nproc=1
%NoSave
%Mem=1900MB
#P OB98/GEN NMR

erre ene a

0 1
  C      -83.674      45.503      88.502
  O      -82.697      46.004      87.610
  H      -84.385      46.302      88.726
  H      -83.216      45.169      89.436
  H      -84.216      44.674      88.037
  P      -81.398      45.102      87.329
  C      -79.772      44.854      85.339
  O      -81.039      45.337      85.780
  C      -79.340      45.554      84.048
  O      -80.159      45.114      82.945
  C      -79.502      47.065      84.086
  O      -78.606      47.720      84.958
  C      -79.517      47.430      82.609
  O      -78.217      47.612      82.057
  C      -80.183      46.183      81.979
  N      -81.536      46.463      81.511
  C      -81.641      47.396      80.485
  O      -80.674      47.982      79.998
  N      -82.910      47.672      80.058
  C      -84.059      47.155      80.581
  O      -85.172      47.475      80.181
  C      -83.886      46.194      81.682
  C      -82.650      45.895      82.091
  O      -81.514      43.657      87.711
  O      -80.226      45.877      88.093
  H      -78.333      48.035      81.183
  H      -79.439      45.295      88.221
  H      -83.006      48.338      79.308
  H      -84.776      45.766      82.123
  H      -82.496      45.189      82.904
  H      -79.597      45.835      81.118
  H      -80.071      48.355      82.431
  H      -80.506      47.288      84.466
  H      -78.302      45.272      83.834
  H      -79.874      43.780      85.149
  H      -79.026      45.005      86.124
  P      -78.604      49.301      85.188
  C      -78.426      50.933      87.202
  O      -78.420      49.580      86.761
  O      -79.623      50.092      84.435
  O      -77.153      49.703      84.603
  H      -77.237      50.587      84.196
  H      -78.295      50.963      88.263
  H      -79.360      51.388      86.945
  H      -77.628      51.466      86.729

 6  7  8  9  10  11  12  13  14  15  16  26  31  32  33  34  35 0
 6-311+G(2d,p)
 ****
 36  37 0
 6-311+G(2d,p)
 ****
 1  2  3  4  5  17  18  19  20  21  22  23  24  25 0
 3-21G
 ****
 27  28  29  30  38  39  40  41  42  43  44  45 0
 3-21G
 ****


