%nproc=1
%NoSave
%Mem=1900MB
#P OB98/GEN NMR

erre ene a

0 1
  C      663.958    -506.527    -715.467
  O      663.602    -506.975    -716.767
  P      662.627    -508.235    -717.011
  C      660.685    -506.959    -718.151
  O      661.715    -507.941    -718.305
  C      660.248    -506.369    -719.500
  O      661.217    -505.415    -719.985
  C      660.099    -507.420    -720.618
  O      658.887    -508.121    -720.480
  C      660.204    -506.529    -721.857
  O      658.955    -505.898    -722.129
  C      661.240    -505.493    -721.416
  N      664.651    -504.875    -725.199
  C      663.394    -504.401    -725.018
  N      662.551    -504.598    -723.988
  C      663.134    -505.386    -723.064
  C      664.392    -505.939    -723.101
  C      665.179    -505.656    -724.230
  N      666.451    -506.152    -724.421
  N      664.637    -506.706    -721.969
  C      663.533    -506.603    -721.246
  N      662.597    -505.806    -721.871
  O      661.844    -508.644    -715.793
  O      663.588    -509.420    -717.503
  H      658.320    -506.596    -722.402
  H      663.200    -510.283    -717.236
  H      663.009    -503.753    -725.820
  H      663.374    -507.062    -720.293
  H      661.016    -504.485    -721.790
  H      660.489    -507.099    -722.751
  H      660.945    -508.122    -720.589
  H      659.293    -505.834    -719.338
  H      661.073    -506.148    -717.514
  H      666.928    -505.928    -725.277
  H      666.843    -506.789    -723.727
  H      659.830    -507.424    -717.658
  P      658.568    -509.384    -721.428
  C      658.347    -511.145    -719.548
  O      657.675    -510.398    -720.555
  O      659.760    -509.994    -722.108
  O      657.513    -508.811    -722.499
  H      657.626    -509.303    -723.329
  H      658.880    -511.977    -720.011
  H      657.612    -511.530    -718.834
  H      659.066    -510.494    -719.011
  H      664.610    -505.682    -715.547
  H      664.458    -507.315    -714.943
  H      663.075    -506.247    -714.932

 3  4  5  6  7  8  9  10  11  12  22  25  29  30  31  32 0
 6-311+G(2d,p)
 ****
 33  36  37 0
 6-311+G(2d,p)
 ****
 1  2  13  14  15  16  17  18  19  20  21  23  24  26 0
 3-21G
 ****
 27  28  34  35  38  39  40  41  42  43  44  45  46  47  48 0
 3-21G
 ****


