%nproc=1
%NoSave
%Mem=1900MB
#P OB98/GEN NMR

erre ene a

0 1
  C      468.185      28.783      30.668
  O      469.462      28.596      31.248
  H      468.116      28.174      29.757
  H      468.050      29.833      30.400
  H      467.397      28.468      31.358
  P      469.692      29.236      32.702
  C      469.166      26.880      33.655
  O      468.935      28.280      33.746
  C      469.533      26.315      35.034
  O      468.468      26.572      35.979
  C      469.767      24.810      35.049
  O      471.087      24.477      34.628
  C      469.571      24.519      36.530
  O      470.750      24.920      37.266
  C      468.387      25.432      36.877
  N      464.800      22.722      39.219
  C      466.017      23.178      39.691
  N      466.331      22.858      40.971
  N      466.861      23.880      38.979
  C      466.422      24.116      37.718
  C      465.236      23.723      37.135
  C      464.310      22.954      37.943
  O      463.210      22.545      37.584
  N      465.140      24.157      35.840
  C      466.275      24.799      35.633
  N      467.087      24.795      36.733
  O      468.770      30.552      32.679
  O      471.103      29.569      33.039
  H      470.579      24.721      38.204
  H      469.218      31.257      33.186
  H      464.193      22.175      39.815
  H      466.545      25.281      34.702
  H      468.447      25.815      37.903
  H      469.415      23.456      36.733
  H      465.745      22.282      41.553
  H      469.007      24.275      34.470
  H      467.202      23.205      41.344
  H      470.419      26.856      35.391
  H      469.990      26.694      32.962
  H      468.261      26.389      33.281
  P      471.265      23.154      33.739
  C      470.870      24.338      31.464
  O      470.390      23.395      32.416
  O      470.417      22.055      34.545
  O      472.682      22.727      33.522
  H      470.738      21.163      34.324
  H      470.188      24.393      30.641
  H      471.832      24.030      31.111
  H      470.951      25.300      31.925

 6  7  8  9  10  11  12  13  14  15  26  29  33  34 0
 6-311+G(2d,p)
 ****
 36  38  39  40  41 0
 6-311+G(2d,p)
 ****
 1  2  3  4  5  16  17  18  19  20  21  22  23  24  25 0
 3-21G
 ****
 27  28  30  31  32  35  37  42  43  44  45  46  47 0
 3-21G
 ****
 48  49 0
 3-21G
 ****


