%nproc=1
%NoSave
%Mem=1900MB
#P OB98/GEN NMR

erre ene a

0 1
  C     -520.532    -339.515    -208.501
  O     -519.805    -340.074    -207.425
  H     -521.211    -338.755    -208.109
  H     -521.120    -340.290    -209.001
  H     -519.848    -339.046    -209.216
  P     -518.763    -341.238    -207.794
  C     -517.588    -340.895    -205.508
  O     -518.217    -341.808    -206.395
  C     -516.482    -341.595    -204.722
  O     -515.629    -342.355    -205.609
  C     -515.570    -340.654    -203.944
  O     -516.151    -340.293    -202.701
  C     -514.322    -341.509    -203.786
  O     -514.462    -342.450    -202.701
  C     -514.261    -342.241    -205.133
  N     -509.566    -340.774    -206.275
  C     -510.036    -341.493    -205.199
  N     -509.127    -341.823    -204.255
  N     -511.287    -341.846    -205.047
  C     -512.086    -341.414    -206.054
  C     -511.737    -340.711    -207.182
  C     -510.345    -340.355    -207.348
  O     -509.855    -339.772    -208.310
  N     -512.831    -340.475    -207.979
  C     -513.838    -341.003    -207.313
  N     -513.441    -341.572    -206.128
  O     -517.504    -340.440    -208.380
  O     -519.263    -342.260    -208.757
  H     -514.349    -341.983    -201.855
  H     -517.058    -340.997    -209.045
  H     -508.590    -340.545    -206.342
  H     -514.867    -341.000    -207.648
  H     -513.865    -343.258    -205.035
  H     -513.444    -340.904    -203.563
  H     -508.264    -341.311    -204.150
  H     -515.329    -339.764    -204.543
  H     -509.469    -342.333    -203.449
  H     -516.963    -342.313    -204.043
  H     -518.336    -340.506    -204.806
  H     -517.173    -340.064    -206.083
  P     -515.758    -338.864    -202.082
  C     -518.318    -338.654    -201.668
  O     -517.004    -338.400    -201.188
  O     -515.830    -337.884    -203.345
  O     -514.426    -338.818    -201.412
  H     -515.354    -337.053    -203.152
  H     -519.033    -338.287    -200.962
  H     -518.453    -339.708    -201.797
  H     -518.457    -338.159    -202.606

 6  7  8  9  10  11  12  13  14  15  26  29  33  34 0
 6-311+G(2d,p)
 ****
 36  38  39  40  41 0
 6-311+G(2d,p)
 ****
 1  2  3  4  5  16  17  18  19  20  21  22  23  24  25 0
 3-21G
 ****
 27  28  30  31  32  35  37  42  43  44  45  46  47 0
 3-21G
 ****
 48  49 0
 3-21G
 ****


