%nproc=1
%NoSave
%Mem=1900MB
#P OB98/GEN NMR

erre ene a

0 1
  C      261.962    -825.388     566.594
  O      263.206    -825.196     565.966
  H      261.518    -824.409     566.804
  H      262.102    -825.914     567.547
  H      261.289    -825.954     565.954
  P      263.993    -826.517     565.490
  C      265.277    -826.877     567.718
  O      264.285    -827.368     566.821
  C      265.466    -827.832     568.894
  O      264.297    -827.749     569.764
  C      265.631    -829.315     568.482
  O      266.546    -829.927     569.401
  C      264.245    -829.887     568.738
  O      264.262    -831.308     568.906
  C      263.857    -829.105     569.991
  N      259.988    -832.257     570.676
  C      261.342    -832.514     570.506
  N      261.703    -833.813     570.503
  N      262.228    -831.580     570.336
  C      261.718    -830.323     570.377
  C      260.409    -829.929     570.550
  C      259.420    -830.981     570.703
  O      258.208    -830.816     570.849
  N      260.290    -828.575     570.515
  C      261.529    -828.132     570.327
  N      262.426    -829.157     570.242
  O      265.434    -825.937     565.086
  O      263.363    -827.271     564.373
  H      264.731    -831.509     569.736
  H      265.462    -825.734     564.131
  H      259.337    -833.010     570.790
  H      261.814    -827.090     570.246
  H      264.352    -829.482     570.894
  H      263.584    -829.642     567.897
  H      261.078    -834.581     570.672
  H      265.982    -829.457     567.458
  H      262.698    -834.016     570.422
  H      266.329    -827.491     569.482
  H      264.954    -825.895     568.106
  H      266.227    -826.755     567.184
  P      268.121    -829.809     569.091
  C      267.986    -832.105     567.862
  O      268.451    -830.754     567.841
  O      268.772    -830.596     570.324
  O      268.619    -828.407     569.003
  H      269.667    -830.253     570.496
  H      268.286    -832.600     566.962
  H      266.919    -832.114     567.935
  H      268.405    -832.613     568.705

 6  7  8  9  10  11  12  13  14  15  26  29  33  34 0
 6-311+G(2d,p)
 ****
 36  38  39  40  41 0
 6-311+G(2d,p)
 ****
 1  2  3  4  5  16  17  18  19  20  21  22  23  24  25 0
 3-21G
 ****
 27  28  30  31  32  35  37  42  43  44  45  46  47 0
 3-21G
 ****
 48  49 0
 3-21G
 ****


