%nproc=1
%NoSave
%Mem=1900MB
#P OB98/GEN NMR

erre ene a

0 1
  C      316.090    -667.220     362.593
  O      316.149    -667.200     364.003
  P      315.436    -666.082     364.894
  C      315.535    -663.495     365.018
  O      316.211    -664.688     364.674
  C      316.179    -662.236     364.417
  O      316.413    -662.453     363.005
  C      315.225    -661.042     364.506
  O      315.150    -660.288     365.706
  C      315.468    -660.223     363.251
  O      316.347    -659.124     363.476
  C      316.111    -661.238     362.294
  N      314.392    -659.676     357.780
  C      315.440    -659.173     358.541
  N      315.967    -658.007     358.107
  N      315.906    -659.767     359.613
  C      315.213    -660.888     359.961
  C      314.170    -661.482     359.286
  C      313.694    -660.843     358.082
  O      312.708    -661.196     357.438
  N      313.664    -662.553     359.979
  C      314.388    -662.589     361.080
  N      315.306    -661.565     361.136
  O      315.063    -666.478     366.285
  O      314.065    -665.842     364.075
  H      316.321    -658.544     362.689
  H      313.360    -665.646     364.723
  H      314.020    -659.143     357.015
  H      314.252    -663.296     361.899
  H      317.079    -660.849     361.916
  H      314.532    -659.802     362.871
  H      315.543    -657.455     357.389
  H      314.200    -661.442     364.399
  H      316.618    -657.534     358.730
  H      317.163    -662.044     364.853
  H      315.527    -663.421     366.118
  H      314.488    -663.545     364.698
  P      313.893    -659.445     366.228
  C      312.542    -657.467     365.320
  O      313.821    -658.077     365.393
  O      314.322    -658.944     367.683
  O      312.609    -660.214     366.299
  H      313.526    -658.736     368.220
  H      312.541    -656.735     364.502
  H      312.327    -656.943     366.251
  H      311.756    -658.221     365.134
  H      316.641    -668.060     362.225
  H      316.514    -666.317     362.205
  H      315.070    -667.298     362.280

 3  4  5  6  7  8  9  10  11  12  23  26  30  31 0
 6-311+G(2d,p)
 ****
 33  35  36  37  38 0
 6-311+G(2d,p)
 ****
 1  2  13  14  15  16  17  18  19  20  21  22  24  25 0
 3-21G
 ****
 27  28  29  32  34  39  40  41  42  43  44  45  46  47  48  49 0
 3-21G
 ****


