%nproc=1
%NoSave
%Mem=1900MB
#P OB98/GEN NMR

erre ene a

0 1
  C      145.061    1268.874    1095.894
  O      145.506    1267.888    1094.957
  P      145.906    1266.428    1095.540
  C      148.290    1267.422    1096.088
  O      147.509    1266.367    1095.494
  C      149.756    1267.099    1095.896
  O      150.089    1265.836    1096.524
  C      150.220    1266.970    1094.451
  O      150.356    1268.235    1093.804
  C      151.546    1266.187    1094.621
  O      152.587    1267.097    1094.990
  C      151.186    1265.254    1095.807
  N      150.880    1263.905    1095.368
  C      151.934    1263.110    1094.920
  O      153.109    1263.543    1094.878
  N      151.623    1261.833    1094.509
  C      150.336    1261.313    1094.472
  O      150.135    1260.188    1094.047
  C      149.253    1262.156    1094.930
  C      149.567    1263.422    1095.360
  O      145.416    1265.526    1094.305
  O      145.240    1266.129    1096.831
  H      145.457    1266.005    1093.442
  H      152.701    1267.697    1094.214
  H      152.371    1261.271    1094.220
  H      148.245    1261.785    1094.900
  H      148.773    1264.071    1095.687
  H      152.048    1265.206    1096.503
  H      151.842    1265.683    1093.693
  H      149.503    1266.351    1093.900
  H      150.360    1267.904    1096.391
  H      148.073    1267.458    1097.162
  H      148.007    1268.360    1095.629
  P      149.180    1268.617    1092.731
  C      150.376    1267.369    1090.746
  O      149.864    1268.580    1091.275
  O      148.971    1270.148    1093.056
  O      147.944    1267.795    1092.864
  H      149.838    1270.636    1093.204
  H      150.452    1267.441    1089.666
  H      149.713    1266.503    1090.986
  H      151.379    1267.189    1091.187
  H      144.833    1269.782    1095.375
  H      145.833    1269.058    1096.612
  H      144.185    1268.520    1096.395

 3  4  5  6  7  8  9  10  11  12  13  24  28  29  30  31  32 0
 6-311+G(2d,p)
 ****
 33  34 0
 6-311+G(2d,p)
 ****
 1  2  14  15  16  17  18  19  20  21  22  23  25  26  27 0
 3-21G
 ****
 35  36  37  38  39  40  41  42  43  44  45 0
 3-21G
 ****


