%nproc=1
%NoSave
%Mem=1900MB
#P OB98/GEN NMR

erre ene a

0 1
  C       80.310    -144.273      65.527
  O       81.360    -144.122      66.491
  P       82.168    -145.365      67.102
  C       83.107    -147.004      65.345
  O       83.321    -145.801      66.078
  C       84.174    -147.205      64.264
  O       84.081    -146.176      63.262
  C       85.611    -147.152      64.768
  O       85.963    -148.347      65.440
  C       86.367    -146.903      63.467
  O       86.580    -148.129      62.749
  C       85.394    -145.982      62.703
  N       85.796    -144.582      62.752
  C       86.210    -144.008      61.547
  O       86.279    -144.689      60.523
  N       86.559    -142.679      61.538
  C       86.567    -142.008      62.647
  N       86.915    -140.694      62.576
  C       86.226    -142.599      63.954
  C       85.851    -143.877      63.931
  O       81.297    -146.493      67.553
  O       82.983    -144.762      68.342
  H       86.874    -148.788      63.407
  H       83.087    -145.454      69.022
  H       86.272    -142.013      64.858
  H       85.574    -144.387      64.846
  H       85.324    -146.289      61.653
  H       87.351    -146.453      63.633
  H       85.739    -146.289      65.432
  H       83.977    -148.169      63.775
  H       87.137    -140.318      61.664
  H       82.120    -146.946      64.871
  H       86.952    -140.083      63.378
  H       83.111    -147.847      66.043
  P       85.871    -148.418      67.037
  C       83.976    -148.564      68.761
  O       84.363    -148.795      67.419
  O       86.440    -147.249      67.769
  O       86.669    -149.761      67.401
  H       87.093    -149.651      68.272
  H       82.888    -148.469      68.801
  H       84.429    -147.648      69.150
  H       84.282    -149.414      69.377
  H       79.922    -143.310      65.269
  H       79.528    -144.873      65.943
  H       80.697    -144.749      64.650

 3  4  5  6  7  8  9  10  11  12  13  23  27  28  29  30  32 0
 6-311+G(2d,p)
 ****
 34  35 0
 6-311+G(2d,p)
 ****
 1  2  14  15  16  17  18  19  20  21  22  24  25  26 0
 3-21G
 ****
 31  33  36  37  38  39  40  41  42  43  44  45  46 0
 3-21G
 ****


