%nproc=1
%NoSave
%Mem=1900MB
#P OB98/GEN NMR

erre ene a

0 1
  C      224.569    -420.352    -347.222
  O      224.483    -420.475    -345.818
  H      224.661    -421.357    -347.654
  H      225.451    -419.773    -347.497
  H      223.665    -419.883    -347.629
  P      224.196    -419.161    -344.940
  C      225.548    -420.020    -342.914
  O      224.282    -419.590    -343.394
  C      225.493    -421.489    -342.478
  O      224.836    -421.563    -341.184
  C      224.718    -422.396    -343.445
  O      225.361    -423.670    -343.512
  C      223.359    -422.533    -342.792
  O      222.699    -423.743    -343.165
  C      223.716    -422.476    -341.310
  N      221.115    -423.293    -337.057
  C      222.253    -423.896    -337.527
  N      222.779    -424.881    -336.766
  N      222.842    -423.573    -338.653
  C      222.224    -422.547    -339.302
  C      221.081    -421.864    -338.937
  C      220.434    -422.254    -337.698
  O      219.408    -421.766    -337.238
  N      220.756    -420.914    -339.871
  C      221.692    -421.015    -340.794
  N      222.595    -422.013    -340.506
  O      222.952    -418.413    -345.315
  O      225.504    -418.262    -345.136
  H      223.373    -424.456    -343.135
  H      225.328    -417.510    -345.740
  H      220.696    -423.587    -336.189
  H      221.759    -420.415    -341.685
  H      224.018    -423.452    -340.908
  H      222.719    -421.693    -343.082
  H      222.393    -425.171    -335.879
  H      224.652    -421.962    -344.447
  H      223.640    -425.325    -337.076
  H      226.520    -421.850    -342.338
  H      225.827    -419.390    -342.061
  H      226.296    -419.892    -343.709
  P      226.497    -423.917    -344.625
  C      224.995    -424.721    -346.541
  O      226.009    -425.080    -345.616
  O      227.891    -424.074    -344.095
  O      226.386    -422.602    -345.545
  H      227.281    -422.360    -345.864
  H      224.749    -425.568    -347.147
  H      225.347    -423.926    -347.165
  H      224.125    -424.398    -346.009

 6  7  8  9  10  11  12  13  14  15  26  29  33  34 0
 6-311+G(2d,p)
 ****
 36  38  39  40  41 0
 6-311+G(2d,p)
 ****
 1  2  3  4  5  16  17  18  19  20  21  22  23  24  25 0
 3-21G
 ****
 27  28  30  31  32  35  37  42  43  44  45  46  47 0
 3-21G
 ****
 48  49 0
 3-21G
 ****


