%nproc=1
%NoSave
%Mem=1900MB
#P OB98/GEN NMR

erre ene a

0 1
  C      815.564      55.575    -571.646
  O      815.000      54.917    -572.798
  P      815.557      53.526    -573.357
  C      816.885      54.495    -575.348
  O      816.952      53.769    -574.121
  C      817.810      53.899    -576.410
  O      817.631      52.477    -576.511
  C      817.612      54.428    -577.823
  O      818.165      55.735    -577.955
  C      818.309      53.351    -578.636
  O      819.733      53.569    -578.684
  C      817.969      52.079    -577.852
  N      816.889      51.308    -578.462
  C      817.220      50.533    -579.575
  O      818.371      50.559    -580.027
  N      816.247      49.757    -580.163
  C      815.021      49.831    -579.712
  N      814.113      49.039    -580.329
  C      814.615      50.703    -578.602
  C      815.587      51.407    -578.027
  O      814.552      52.758    -574.151
  O      815.999      52.696    -572.060
  H      819.847      54.450    -579.120
  H      815.867      51.746    -572.229
  H      813.585      50.743    -578.293
  H      815.364      52.072    -577.193
  H      818.854      51.428    -577.763
  H      817.959      53.337    -579.677
  H      816.537      54.441    -578.056
  H      818.853      54.083    -576.067
  H      814.426      48.445    -581.091
  H      817.176      55.531    -575.160
  H      813.131      48.996    -580.067
  H      815.845      54.488    -575.707
  P      817.192      57.018    -577.911
  C      816.806      56.968    -580.445
  O      816.212      56.921    -579.158
  O      817.878      58.328    -577.729
  O      816.226      56.707    -576.660
  H      815.972      57.548    -576.252
  H      816.125      56.494    -581.159
  H      817.759      56.417    -580.446
  H      816.974      58.002    -580.718
  H      815.033      56.485    -571.459
  H      816.595      55.795    -571.830
  H      815.483      54.933    -570.794

 3  4  5  6  7  8  9  10  11  12  13  23  27  28  29  30  32 0
 6-311+G(2d,p)
 ****
 34  35 0
 6-311+G(2d,p)
 ****
 1  2  14  15  16  17  18  19  20  21  22  24  25  26 0
 3-21G
 ****
 31  33  36  37  38  39  40  41  42  43  44  45  46 0
 3-21G
 ****


