%nproc=1
%NoSave
%Mem=1900MB
#P OB98/GEN NMR

erre ene a

0 1
  C      -17.875    -147.403    -232.406
  O      -18.575    -146.390    -231.683
  P      -19.058    -145.119    -232.545
  C      -17.984    -142.870    -233.260
  O      -17.768    -144.201    -232.813
  C      -16.745    -142.321    -233.971
  O      -15.583    -142.351    -233.087
  C      -16.361    -143.102    -235.238
  O      -15.838    -142.147    -236.171
  C      -15.262    -144.019    -234.727
  O      -14.481    -144.592    -235.763
  C      -14.539    -143.058    -233.791
  N      -10.093    -145.523    -233.361
  C      -10.732    -144.991    -234.428
  N      -11.921    -144.353    -234.459
  C      -12.451    -144.284    -233.225
  C      -11.922    -144.778    -232.043
  C      -10.677    -145.427    -232.144
  N      -10.026    -145.992    -231.068
  N      -12.774    -144.530    -230.982
  C      -13.831    -143.959    -231.534
  N      -13.646    -143.718    -232.867
  O      -19.925    -144.273    -231.501
  O      -19.831    -145.487    -233.768
  H      -13.685    -145.016    -235.381
  H      -20.879    -144.437    -231.640
  H      -10.222    -145.102    -235.383
  H      -14.746    -143.706    -231.023
  H      -13.947    -142.314    -234.338
  H      -15.714    -144.844    -234.164
  H      -17.204    -143.629    -235.700
  H      -16.931    -141.267    -234.226
  H      -18.227    -142.223    -232.412
  H       -9.142    -146.438    -231.237
  H      -10.436    -145.951    -230.144
  H      -18.860    -142.854    -233.919
  P      -16.399    -142.145    -237.675
  C      -15.749    -143.407    -239.810
  O      -15.367    -143.062    -238.494
  O      -15.959    -140.678    -238.149
  O      -17.854    -142.427    -237.836
  H      -15.021    -140.512    -237.950
  H      -14.927    -143.956    -240.279
  H      -15.950    -142.506    -240.396
  H      -16.635    -144.046    -239.785
  H      -17.603    -148.194    -231.739
  H      -16.992    -146.985    -232.841
  H      -18.505    -147.789    -233.180

 3  4  5  6  7  8  9  10  11  12  22  25  29  30  31  32 0
 6-311+G(2d,p)
 ****
 33  36  37 0
 6-311+G(2d,p)
 ****
 1  2  13  14  15  16  17  18  19  20  21  23  24  26 0
 3-21G
 ****
 27  28  34  35  38  39  40  41  42  43  44  45  46  47  48 0
 3-21G
 ****


