%nproc=1
%NoSave
%Mem=1900MB
#P OB98/GEN NMR

erre ene a

0 1
  C      280.543     334.610     -81.596
  O      279.945     333.503     -80.959
  H      280.854     335.326     -80.833
  H      279.816     335.094     -82.257
  H      281.421     334.310     -82.173
  P      279.690     332.168     -81.806
  C      280.808     330.524     -80.159
  O      279.596     330.957     -80.761
  C      280.546     329.943     -78.765
  O      280.061     331.002     -77.898
  C      279.460     328.863     -78.800
  O      279.623     327.904     -77.758
  C      278.190     329.657     -78.548
  O      277.123     328.861     -78.030
  C      278.687     330.726     -77.576
  N      274.670     333.305     -75.792
  C      275.000     331.976     -75.617
  N      274.149     331.237     -74.866
  N      276.055     331.415     -76.150
  C      276.775     332.253     -76.935
  C      276.535     333.584     -77.202
  C      275.382     334.200     -76.579
  O      275.032     335.365     -76.719
  N      277.481     334.100     -78.051
  C      278.286     333.089     -78.302
  N      277.914     331.953     -77.627
  O      281.101     331.898     -82.518
  O      278.575     332.240     -82.804
  H      277.481     328.342     -77.289
  H      280.982     331.342     -83.307
  H      273.863     333.691     -75.336
  H      279.156     333.130     -78.946
  H      278.655     330.357     -76.543
  H      277.850     330.072     -79.499
  H      273.237     331.581     -74.608
  H      279.414     328.346     -79.755
  H      274.204     330.224     -74.986
  H      281.483     329.581     -78.327
  H      281.461     331.397     -80.097
  H      281.307     329.791     -80.795
  P      278.770     326.550     -77.826
  C      280.701     324.765     -78.127
  O      279.668     325.320     -77.344
  O      278.582     326.296     -79.392
  O      277.458     326.611     -77.104
  H      277.641     326.357     -79.636
  H      281.157     323.956     -77.595
  H      281.436     325.516     -78.332
  H      280.295     324.402     -79.048

 6  7  8  9  10  11  12  13  14  15  26  29  33  34 0
 6-311+G(2d,p)
 ****
 36  38  39  40  41 0
 6-311+G(2d,p)
 ****
 1  2  3  4  5  16  17  18  19  20  21  22  23  24  25 0
 3-21G
 ****
 27  28  30  31  32  35  37  42  43  44  45  46  47 0
 3-21G
 ****
 48  49 0
 3-21G
 ****


