%nproc=1
%NoSave
%Mem=1900MB
#P OB98/GEN NMR

erre ene a

0 1
  C      193.478    -175.943    -153.823
  O      194.365    -175.560    -154.859
  P      195.916    -175.389    -154.478
  C      196.599    -175.446    -156.987
  O      196.611    -174.723    -155.760
  C      196.992    -174.534    -158.145
  O      195.886    -173.690    -158.506
  C      198.142    -173.592    -157.828
  O      199.376    -174.278    -157.873
  C      197.977    -172.540    -158.915
  O      198.651    -172.933    -160.121
  C      196.446    -172.509    -159.125
  N      195.835    -171.295    -158.608
  C      195.970    -170.155    -159.410
  O      196.595    -170.216    -160.469
  N      195.432    -168.971    -158.967
  C      194.816    -168.932    -157.824
  N      194.298    -167.734    -157.441
  C      194.669    -170.107    -156.944
  C      195.201    -171.245    -157.389
  O      196.461    -176.891    -154.493
  O      196.166    -174.704    -153.173
  H      198.373    -172.287    -160.803
  H      197.233    -176.986    -153.903
  H      194.147    -170.020    -156.001
  H      195.141    -172.154    -156.803
  H      196.206    -172.580    -160.194
  H      198.399    -171.576    -158.617
  H      197.999    -173.131    -156.842
  H      197.240    -175.164    -159.010
  H      194.422    -166.947    -158.063
  H      195.591    -175.833    -157.168
  H      193.782    -167.605    -156.581
  H      197.288    -176.293    -156.905
  P      200.661    -173.543    -157.264
  C      201.543    -175.714    -156.223
  O      201.781    -174.687    -157.167
  O      200.245    -173.346    -155.730
  O      201.078    -172.260    -157.903
  H      200.919    -172.813    -155.269
  H      202.290    -176.500    -156.366
  H      200.548    -176.143    -156.367
  H      201.637    -175.318    -155.207
  H      192.485    -176.019    -154.214
  H      193.500    -175.209    -153.045
  H      193.779    -176.891    -153.428

 3  4  5  6  7  8  9  10  11  12  13  21  23  27  28  29  30  32 0
 6-311+G(2d,p)
 ****
 34  35 0
 6-311+G(2d,p)
 ****
 1  2  14  15  16  17  18  19  20  22  24  25  26 0
 3-21G
 ****
 31  33  36  37  38  39  40  41  42  43  44  45  46 0
 3-21G
 ****


