%nproc=1
%NoSave
%Mem=1900MB
#P OB98/GEN NMR

erre ene a

0 1
  C     -119.553    -277.402     -99.502
  O     -119.659    -276.249     -98.691
  P     -119.850    -276.367     -97.105
  C     -117.813    -274.837     -96.822
  O     -119.152    -275.094     -96.426
  C     -117.124    -273.865     -95.865
  O     -117.663    -272.532     -96.059
  C     -117.286    -274.227     -94.380
  O     -116.048    -273.918     -93.730
  C     -118.381    -273.286     -93.918
  O     -118.361    -273.081     -92.514
  C     -118.069    -272.045     -94.765
  N     -119.205    -271.144     -94.870
  C     -119.249    -270.075     -93.971
  O     -118.424    -270.001     -93.058
  N     -120.232    -269.126     -94.124
  C     -121.192    -269.338     -94.972
  N     -122.108    -268.342     -95.142
  C     -121.311    -270.580     -95.762
  C     -120.273    -271.411     -95.697
  O     -119.451    -277.678     -96.516
  O     -121.411    -276.088     -96.875
  H     -121.791    -276.820     -96.354
  H     -119.022    -272.394     -92.282
  H     -122.191    -270.762     -96.359
  H     -120.251    -272.337     -96.260
  H     -117.218    -271.496     -94.343
  H     -119.359    -273.699     -94.189
  H     -117.521    -275.283     -94.224
  H     -116.057    -273.828     -96.126
  H     -121.970    -267.490     -94.614
  H     -117.830    -274.398     -97.822
  H     -122.686    -268.277     -95.981
  H     -117.256    -275.779     -96.885
  P     -115.625    -274.781     -92.445
  C     -113.239    -273.757     -92.473
  O     -114.407    -274.028     -91.724
  O     -114.881    -276.034     -93.132
  O     -116.734    -275.269     -91.572
  H     -114.927    -276.798     -92.529
  H     -112.497    -273.304     -91.807
  H     -113.458    -273.054     -93.279
  H     -112.822    -274.680     -92.884
  H     -119.431    -277.109    -100.524
  H     -120.441    -277.991     -99.403
  H     -118.706    -277.979     -99.193

 3  4  5  6  7  8  9  10  11  12  13  24  27  28  29  30  32 0
 6-311+G(2d,p)
 ****
 34  35 0
 6-311+G(2d,p)
 ****
 1  2  14  15  16  17  18  19  20  21  22  23  25  26 0
 3-21G
 ****
 31  33  36  37  38  39  40  41  42  43  44  45  46 0
 3-21G
 ****


