%nproc=1
%NoSave
%Mem=1900MB
#P OB98/GEN NMR

erre ene a

0 1
  C      412.962     -98.568    -895.320
  O      412.967     -97.226    -895.790
  P      411.549     -96.510    -896.000
  C      409.257     -97.286    -896.960
  O      410.677     -97.435    -896.950
  C      408.607     -98.487    -897.650
  O      409.141     -99.727    -897.130
  C      407.108     -98.564    -897.460
  O      406.412     -97.664    -898.310
  C      406.818    -100.025    -897.780
  O      406.700    -100.240    -899.200
  C      408.090    -100.715    -897.230
  N      407.849    -101.395    -895.950
  C      407.453    -102.716    -896.020
  O      407.276    -103.298    -897.080
  N      407.219    -103.343    -894.820
  C      407.306    -102.763    -893.590
  O      407.026    -103.356    -892.570
  C      407.711    -101.341    -893.570
  C      407.947    -100.734    -894.730
  O      411.904     -95.245    -896.920
  O      410.869     -96.102    -894.720
  H      405.881     -99.789    -899.470
  H      411.337     -94.483    -896.670
  H      406.946    -104.316    -894.860
  H      407.772    -100.843    -892.610
  H      408.229     -99.691    -894.750
  H      408.454    -101.460    -897.950
  H      405.895    -100.382    -897.320
  H      406.844     -98.375    -896.410
  H      408.843     -98.437    -898.730
  H      409.006     -96.363    -897.500
  H      408.904     -97.203    -895.930
  P      404.917     -97.250    -897.890
  C      402.887     -98.742    -897.210
  O      404.074     -98.610    -897.960
  O      404.469     -96.398    -899.170
  O      404.878     -96.506    -896.590
  H      404.878     -96.738    -900.000
  H      402.334     -97.796    -897.150
  H      403.114     -99.081    -896.200
  H      402.257     -99.498    -897.700
  H      413.969     -98.917    -895.227
  H      412.433     -99.187    -896.014
  H      412.480     -98.610    -894.366

 3  4  5  6  7  8  9  10  11  12  13  23  28  29  30  31  32 0
 6-311+G(2d,p)
 ****
 33  34 0
 6-311+G(2d,p)
 ****
 1  2  14  15  16  17  18  19  20  21  22  24  25  26 0
 3-21G
 ****
 27  35  36  37  38  39  40  41  42  43  44  45 0
 3-21G
 ****


