%nproc=1
%NoSave
%Mem=1900MB
#P OB98/GEN NMR

erre ene a

0 1
  C      -47.536     -96.658    -118.260
  O      -47.382     -95.324    -118.715
  P      -47.138     -94.170    -117.632
  C      -48.944     -92.618    -118.674
  O      -47.587     -92.780    -118.293
  C      -49.084     -91.467    -119.672
  O      -48.859     -90.198    -118.983
  C      -48.095     -91.532    -120.844
  O      -48.757     -90.991    -122.000
  C      -46.997     -90.585    -120.399
  O      -46.185     -90.125    -121.470
  C      -47.835     -89.498    -119.719
  N      -47.045     -88.629    -118.851
  C      -46.443     -87.518    -119.434
  O      -46.535     -87.230    -120.627
  N      -45.659     -86.761    -118.603
  C      -45.352     -87.047    -117.307
  O      -44.550     -86.388    -116.650
  C      -46.016     -88.231    -116.741
  C      -46.819     -88.957    -117.526
  O      -45.544     -94.061    -117.566
  O      -47.735     -94.439    -116.292
  H      -46.769     -89.681    -122.109
  H      -45.201     -94.538    -116.786
  H      -45.227     -85.945    -119.007
  H      -45.810     -88.475    -115.708
  H      -47.304     -89.845    -117.142
  H      -48.347     -88.888    -120.475
  H      -46.346     -91.095    -119.680
  H      -47.727     -92.541    -121.053
  H      -50.117     -91.450    -120.047
  H      -49.541     -92.399    -117.787
  H      -49.320     -93.552    -119.108
  P      -49.463     -92.024    -123.010
  C      -47.221     -92.925    -124.018
  O      -48.443     -92.245    -124.226
  O      -50.609     -91.091    -123.633
  O      -49.987     -93.253    -122.345
  H      -50.289     -90.199    -123.852
  H      -47.324     -93.716    -123.268
  H      -46.463     -92.212    -123.686
  H      -46.901     -93.373    -124.960
  H      -47.690     -97.305    -119.098
  H      -48.380     -96.716    -117.605
  H      -46.654     -96.959    -117.734

 3  4  5  6  7  8  9  10  11  12  13  23  28  29  30  31  32 0
 6-311+G(2d,p)
 ****
 33  34 0
 6-311+G(2d,p)
 ****
 1  2  14  15  16  17  18  19  20  21  22  24  25  26 0
 3-21G
 ****
 27  35  36  37  38  39  40  41  42  43  44  45 0
 3-21G
 ****


