%nproc=1
%NoSave
%Mem=1900MB
#P OB98/GEN NMR

erre ene a

0 1
  C     -277.118    -637.366     359.530
  O     -278.359    -637.973     359.912
  P     -279.421    -638.221     358.735
  C     -281.671    -637.768     359.959
  O     -280.789    -638.730     359.404
  C     -282.756    -638.443     360.801
  O     -283.520    -639.417     360.037
  C     -282.222    -639.185     362.003
  O     -281.937    -638.280     363.054
  C     -283.374    -640.137     362.330
  O     -284.377    -639.480     363.132
  C     -283.923    -640.471     360.945
  N     -284.377    -645.521     361.329
  C     -284.858    -644.519     362.162
  N     -285.569    -644.911     363.225
  N     -284.648    -643.248     361.956
  C     -283.908    -642.985     360.842
  C     -283.399    -643.881     359.933
  C     -283.638    -645.301     360.178
  O     -283.254    -646.223     359.468
  N     -282.764    -643.251     358.905
  C     -282.770    -641.978     359.260
  N     -283.511    -641.755     360.399
  O     -278.843    -639.511     357.987
  O     -279.556    -637.061     357.808
  H     -285.145    -640.070     363.212
  H     -278.506    -639.263     357.103
  H     -284.557    -646.487     361.552
  H     -282.285    -641.184     358.712
  H     -285.020    -640.484     360.941
  H     -283.029    -641.006     362.901
  H     -285.776    -645.886     363.453
  H     -281.320    -639.758     361.730
  H     -285.945    -644.190     363.846
  H     -283.463    -637.658     361.118
  H     -282.137    -637.178     359.157
  H     -281.086    -637.063     360.567
  P     -280.549    -638.447     363.848
  C     -281.067    -638.376     366.397
  O     -280.690    -637.650     365.241
  O     -279.523    -637.572     363.003
  O     -280.088    -639.865     363.963
  H     -278.695    -638.054     362.876
  H     -280.635    -637.893     367.270
  H     -280.731    -639.415     366.363
  H     -282.166    -638.364     366.503
  H     -276.496    -637.252     360.393
  H     -277.309    -636.406     359.099
  H     -276.623    -637.987     358.813

 3  4  5  6  7  8  9  10  11  12  23  26  30  31 0
 6-311+G(2d,p)
 ****
 33  35  36  37  38 0
 6-311+G(2d,p)
 ****
 1  2  13  14  15  16  17  18  19  20  21  22  24  25 0
 3-21G
 ****
 27  28  29  32  34  39  40  41  42  43  44  45  46  47  48  49 0
 3-21G
 ****


