%nproc=1
%NoSave
%Mem=1900MB
#P OB98/GEN NMR

erre ene a

0 1
  C      480.733     392.415     139.174
  O      481.115     393.643     138.585
  H      479.643     392.355     139.183
  H      481.097     392.369     140.205
  H      481.130     391.574     138.597
  P      482.685     393.850     138.307
  C      482.926     395.922     139.898
  O      482.962     395.405     138.581
  C      483.163     397.434     139.887
  O      484.364     397.711     139.127
  C      482.022     398.235     139.262
  O      481.870     399.456     139.986
  C      482.516     398.525     137.856
  O      481.883     399.672     137.292
  C      484.029     398.645     138.080
  N      484.794     398.381     136.864
  C      484.797     399.388     135.890
  O      484.158     400.423     136.075
  N      485.486     399.180     134.722
  C      486.061     398.038     134.510
  N      486.711     397.888     133.324
  C      486.041     396.928     135.486
  C      485.406     397.169     136.629
  O      482.750     393.724     136.713
  O      483.567     392.899     139.042
  H      482.241     399.805     136.386
  H      482.018     394.171     136.255
  H      486.525     395.989     135.255
  H      485.347     396.414     137.405
  H      484.284     399.652     138.437
  H      482.300     397.668     137.202
  H      481.071     397.699     139.250
  H      483.361     397.762     140.913
  H      486.685     398.664     132.673
  H      483.687     395.441     140.519
  H      487.148     397.024     133.033
  H      481.944     395.695     140.323
  P      481.397     399.409     141.513
  C      479.994     401.542     141.863
  O      481.249     400.910     142.064
  O      482.162     398.486     142.404
  O      479.863     398.938     141.400
  H      479.682     398.326     142.140
  H      480.023     402.530     142.272
  H      479.228     400.977     142.351
  H      479.785     401.595     140.815

 6  7  8  9  10  11  12  13  14  15  16  26  30  31  32  33  35 0
 6-311+G(2d,p)
 ****
 37  38 0
 6-311+G(2d,p)
 ****
 1  2  3  4  5  17  18  19  20  21  22  23  24  25 0
 3-21G
 ****
 27  28  29  34  36  39  40  41  42  43  44  45  46 0
 3-21G
 ****


