%nproc=1
%NoSave
%Mem=1900MB
#P OB98/GEN NMR

erre ene a

0 1
  C      675.910    -765.931    1402.146
  O      674.792    -765.348    1402.804
  P      673.349    -765.300    1402.090
  C      672.511    -764.565    1399.770
  O      673.652    -764.806    1400.584
  C      672.788    -763.357    1398.832
  O      673.829    -763.743    1397.889
  C      671.606    -762.898    1397.978
  O      670.710    -762.005    1398.626
  C      672.357    -762.168    1396.858
  O      672.749    -760.863    1397.342
  C      673.591    -763.037    1396.643
  N      672.339    -763.585    1391.727
  C      672.462    -762.494    1392.525
  N      672.762    -762.432    1393.822
  C      673.011    -763.651    1394.313
  C      672.929    -764.855    1393.625
  C      672.555    -764.817    1392.264
  N      672.473    -765.917    1391.474
  N      673.259    -765.934    1394.436
  C      673.521    -765.372    1395.622
  N      673.399    -764.004    1395.583
  O      672.320    -764.505    1402.833
  O      672.949    -766.842    1401.890
  H      673.146    -760.361    1396.579
  H      671.990    -766.923    1401.697
  H      672.241    -761.532    1392.040
  H      673.811    -765.887    1396.514
  H      674.500    -762.460    1396.433
  H      671.737    -762.000    1395.985
  H      671.082    -763.758    1397.545
  H      673.186    -762.516    1399.430
  H      671.657    -764.298    1400.429
  H      672.320    -765.745    1390.468
  H      672.824    -766.820    1391.830
  H      672.273    -765.442    1399.202
  P      669.130    -762.244    1398.379
  C      667.829    -762.546    1396.124
  O      668.876    -761.876    1396.843
  O      668.251    -761.565    1399.376
  O      669.008    -763.844    1398.411
  H      669.447    -764.307    1397.650
  H      667.728    -762.027    1395.171
  H      666.890    -762.478    1396.667
  H      668.143    -763.572    1395.933
  H      676.770    -765.866    1402.779
  H      676.099    -765.407    1401.232
  H      675.702    -766.958    1401.931

 3  4  5  6  7  8  9  10  11  12  22  25  29  30  31  32 0
 6-311+G(2d,p)
 ****
 33  36  37 0
 6-311+G(2d,p)
 ****
 1  2  13  14  15  16  17  18  19  20  21  23  24  26 0
 3-21G
 ****
 27  28  34  35  38  39  40  41  42  43  44  45  46  47  48 0
 3-21G
 ****


