%nproc=1
%NoSave
%Mem=1900MB
#P OB98/GEN NMR

erre ene a

0 1
  C      -67.195      81.486     443.904
  O      -67.255      80.397     444.834
  P      -67.278      78.865     444.354
  C      -64.734      78.499     444.154
  O      -65.974      78.589     443.458
  C      -63.870      77.348     443.629
  O      -63.633      77.492     442.213
  C      -62.492      77.244     444.275
  O      -62.584      76.634     445.550
  C      -61.730      76.438     443.228
  O      -62.020      75.038     443.363
  C      -62.318      76.983     441.919
  N      -58.338      77.888     438.837
  C      -58.940      76.741     439.222
  N      -59.994      76.580     440.053
  C      -60.444      77.773     440.478
  C      -59.933      79.027     440.172
  C      -58.825      79.060     439.310
  N      -58.203      80.228     438.930
  N      -60.643      80.017     440.817
  C      -61.580      79.373     441.485
  N      -61.502      78.019     441.313
  O      -68.560      78.441     443.717
  O      -67.000      78.018     445.684
  H      -61.895      74.802     444.300
  H      -67.413      77.138     445.607
  H      -58.519      75.829     438.810
  H      -62.335      79.843     442.103
  H      -62.449      76.190     441.175
  H      -60.645      76.559     443.309
  H      -62.043      78.243     444.363
  H      -64.430      76.417     443.773
  H      -64.947      78.340     445.219
  H      -57.392      80.168     438.334
  H      -58.528      81.103     439.316
  H      -64.201      79.449     444.038
  P      -62.432      77.519     446.877
  C      -64.793      77.100     447.786
  O      -63.894      78.055     447.255
  O      -61.363      78.558     446.839
  O      -62.148      76.437     448.022
  H      -61.605      76.841     448.722
  H      -65.221      76.509     446.975
  H      -65.598      77.628     448.307
  H      -64.288      76.437     448.495
  H      -67.190      82.412     444.439
  H      -68.048      81.452     443.259
  H      -66.303      81.407     443.319

 3  4  5  6  7  8  9  10  11  12  22  25  29  30  31  32 0
 6-311+G(2d,p)
 ****
 33  36  37 0
 6-311+G(2d,p)
 ****
 1  2  13  14  15  16  17  18  19  20  21  23  24  26 0
 3-21G
 ****
 27  28  34  35  38  39  40  41  42  43  44  45  46  47  48 0
 3-21G
 ****


