%nproc=1
%NoSave
%Mem=1900MB
#P OB98/GEN NMR

erre ene a

0 1
  C      -13.023    1184.577      -8.707
  O      -14.069    1184.802      -9.627
  H      -12.350    1183.819      -9.125
  H      -13.421    1184.206      -7.766
  H      -12.452    1185.496      -8.535
  P      -15.124    1185.970      -9.334
  C      -14.326    1187.172     -11.475
  O      -14.597    1187.288     -10.093
  C      -13.895    1188.530     -12.061
  O      -15.022    1189.435     -11.996
  C      -12.724    1189.173     -11.295
  O      -11.875    1189.821     -12.241
  C      -13.401    1190.196     -10.410
  O      -12.550    1191.276     -10.081
  C      -14.599    1190.606     -11.266
  N      -16.518    1194.755      -9.099
  C      -15.426    1194.604      -9.941
  N      -14.728    1195.731     -10.231
  N      -15.048    1193.463     -10.450
  C      -15.847    1192.436     -10.084
  C      -16.944    1192.454      -9.263
  C      -17.345    1193.717      -8.690
  O      -18.291    1193.905      -7.927
  N      -17.482    1191.185      -9.127
  C      -16.699    1190.418      -9.858
  N      -15.699    1191.119     -10.452
  O      -15.469    1186.170      -7.896
  O      -16.412    1185.564     -10.185
  H      -13.110    1192.057      -9.895
  H      -17.125    1185.220      -9.609
  H      -16.758    1195.656      -8.737
  H      -16.822    1189.349      -9.988
  H      -14.359    1191.389     -11.990
  H      -13.740    1189.729      -9.485
  H      -14.984    1196.653      -9.898
  H      -12.144    1188.441     -10.729
  H      -13.952    1195.659     -10.871
  H      -13.642    1188.389     -13.124
  H      -15.239    1186.832     -11.969
  H      -13.544    1186.429     -11.634
  P      -10.352    1189.325     -12.411
  C      -10.702    1188.779     -14.901
  O      -10.287    1188.284     -13.635
  O       -9.699    1188.876     -11.147
  O       -9.617    1190.621     -13.012
  H       -8.719    1190.656     -12.660
  H      -10.616    1188.003     -15.633
  H      -10.082    1189.605     -15.182
  H      -11.720    1189.102     -14.841

 6  7  8  9  10  11  12  13  14  15  26  29  33  34 0
 6-311+G(2d,p)
 ****
 36  38  39  40  41 0
 6-311+G(2d,p)
 ****
 1  2  3  4  5  16  17  18  19  20  21  22  23  24  25 0
 3-21G
 ****
 27  28  30  31  32  35  37  42  43  44  45  46  47 0
 3-21G
 ****
 48  49 0
 3-21G
 ****


