%nproc=1
%NoSave
%Mem=1900MB
#P OB98/GEN NMR

erre ene a

0 1
  C       24.150     213.538     119.886
  O       22.794     213.116     120.012
  P       21.765     213.488     118.842
  C       21.381     212.196     116.565
  O       22.252     212.843     117.466
  C       21.958     212.291     115.144
  O       21.783     213.624     114.620
  C       23.450     211.977     115.078
  O       23.696     210.589     114.943
  C       23.888     212.790     113.876
  O       23.520     212.119     112.657
  C       23.048     214.076     114.059
  N       23.593     215.146     114.923
  C       24.945     215.475     114.850
  O       25.750     214.927     114.102
  N       25.362     216.489     115.672
  C       24.562     217.306     116.414
  O       24.985     218.237     117.086
  C       23.128     217.013     116.342
  C       22.717     215.962     115.626
  O       21.985     215.056     118.629
  O       20.337     213.159     119.149
  H       23.819     211.196     112.734
  H       21.176     215.548     118.865
  H       26.349     216.693     115.684
  H       22.451     217.665     116.878
  H       21.655     215.736     115.567
  H       22.831     214.536     113.088
  H       24.969     212.900     113.846
  H       23.961     212.379     115.958
  H       21.404     211.598     114.499
  H       20.386     212.646     116.594
  H       21.263     211.148     116.857
  P       23.399     209.603     116.169
  C       21.268     208.571     117.156
  O       21.852     209.195     116.029
  O       23.820     210.087     117.516
  O       24.152     208.250     115.753
  H       25.043     208.206     116.169
  H       20.189     208.491     116.993
  H       21.449     209.161     118.057
  H       21.682     207.567     117.280
  H       24.705     213.215     120.742
  H       24.187     214.605     119.820
  H       24.576     213.111     119.002

 3  4  5  6  7  8  9  10  11  12  13  23  28  29  30  31  32 0
 6-311+G(2d,p)
 ****
 33  34 0
 6-311+G(2d,p)
 ****
 1  2  14  15  16  17  18  19  20  21  22  24  25  26  27 0
 3-21G
 ****
 35  36  37  38  39  40  41  42  43  44  45 0
 3-21G
 ****


