%nproc=1
%NoSave
%Mem=1900MB
#P OB98/GEN NMR

erre ene a

0 1
  C     -320.316    -500.221    -187.801
  O     -321.669    -500.192    -187.366
  P     -322.267    -501.362    -186.447
  C     -323.567    -501.974    -188.580
  O     -323.632    -501.801    -187.169
  C     -324.978    -502.069    -189.159
  O     -325.517    -503.373    -188.832
  C     -325.991    -501.063    -188.618
  O     -325.969    -499.793    -189.257
  C     -327.299    -501.772    -188.958
  O     -327.605    -501.584    -190.351
  C     -326.954    -503.231    -188.679
  N     -330.906    -504.135    -185.549
  C     -330.851    -503.757    -186.847
  N     -329.757    -503.521    -187.601
  C     -328.633    -503.758    -186.901
  C     -328.533    -504.153    -185.578
  C     -329.742    -504.349    -184.888
  N     -329.801    -504.762    -183.578
  N     -327.205    -504.276    -185.204
  C     -326.525    -503.964    -186.290
  N     -327.339    -503.655    -187.342
  O     -322.377    -501.021    -184.998
  O     -321.305    -502.606    -186.718
  H     -326.872    -501.969    -190.864
  H     -321.418    -503.277    -186.013
  H     -331.803    -503.622    -187.339
  H     -325.448    -503.952    -186.354
  H     -327.424    -503.917    -189.394
  H     -328.152    -501.386    -188.394
  H     -325.910    -500.955    -187.527
  H     -324.904    -501.997    -190.253
  H     -323.025    -502.902    -188.788
  H     -330.703    -505.001    -183.204
  H     -328.943    -505.073    -183.136
  H     -323.012    -501.147    -189.028
  P     -325.383    -498.557    -188.414
  C     -327.355    -496.914    -188.948
  O     -325.985    -497.237    -189.102
  O     -323.909    -498.574    -188.234
  O     -326.196    -498.654    -187.037
  H     -327.147    -498.471    -187.101
  H     -327.522    -495.916    -189.358
  H     -327.643    -496.922    -187.897
  H     -327.969    -497.628    -189.503
  H     -320.115    -499.357    -188.399
  H     -320.147    -501.104    -188.381
  H     -319.668    -500.224    -186.950

 3  4  5  6  7  8  9  10  11  12  22  25  29  30  31  32 0
 6-311+G(2d,p)
 ****
 33  36  37 0
 6-311+G(2d,p)
 ****
 1  2  13  14  15  16  17  18  19  20  21  23  24  26 0
 3-21G
 ****
 27  28  34  35  38  39  40  41  42  43  44  45  46  47  48 0
 3-21G
 ****


