%nproc=1
%NoSave
%Mem=1900MB
#P OB98/GEN NMR

erre ene a

0 1
  C      763.262     -51.126    -297.979
  O      762.468     -51.041    -296.794
  P      761.253     -50.027    -296.597
  C      762.638     -48.352    -295.105
  O      761.863     -48.582    -296.281
  C      763.360     -47.012    -295.132
  O      762.413     -45.922    -295.142
  C      764.199     -46.830    -293.837
  O      765.486     -47.418    -293.745
  C      764.159     -45.333    -293.546
  O      765.293     -44.656    -294.085
  C      762.869     -44.871    -294.234
  N      760.615     -41.151    -291.580
  C      761.736     -41.087    -292.367
  N      762.386     -39.898    -292.424
  N      762.208     -42.112    -293.048
  C      761.526     -43.266    -292.824
  C      760.403     -43.458    -292.047
  C      759.848     -42.294    -291.348
  O      758.847     -42.285    -290.655
  N      759.996     -44.777    -292.060
  C      760.884     -45.370    -292.822
  N      761.839     -44.502    -293.298
  O      760.157     -50.505    -295.692
  O      760.643     -49.874    -298.085
  H      765.181     -43.689    -293.891
  H      759.665     -49.726    -297.968
  H      760.286     -40.323    -291.101
  H      760.897     -46.428    -293.037
  H      763.058     -43.995    -294.869
  H      764.150     -45.146    -292.462
  H      762.124     -39.103    -291.856
  H      763.635     -47.298    -293.021
  H      763.310     -39.904    -292.820
  H      763.975     -46.895    -296.029
  H      763.351     -49.180    -295.043
  H      761.989     -48.418    -294.218
  P      765.839     -48.846    -293.098
  C      766.845     -47.789    -290.973
  O      765.852     -48.690    -291.507
  O      767.379     -49.057    -293.462
  O      764.995     -49.986    -293.603
  H      767.621     -50.005    -293.355
  H      766.974     -47.992    -289.913
  H      766.497     -46.777    -291.095
  H      767.796     -47.934    -291.507
  H      764.008     -51.883    -297.855
  H      763.736     -50.184    -298.159
  H      762.636     -51.375    -298.810

 3  4  5  6  7  8  9  10  11  12  23  26  30  31 0
 6-311+G(2d,p)
 ****
 33  35  36  37  38 0
 6-311+G(2d,p)
 ****
 1  2  13  14  15  16  17  18  19  20  21  22  24  25 0
 3-21G
 ****
 27  28  29  32  34  39  40  41  42  43  44  45  46  47  48  49 0
 3-21G
 ****


