%nproc=1
%NoSave
%Mem=1900MB
#P OB98/GEN NMR

erre ene a

0 1
  C       81.623      21.184     -30.438
  O       82.280      21.917     -31.451
  H       82.085      20.201     -30.324
  H       81.712      21.727     -29.494
  H       80.563      21.071     -30.681
  P       82.298      21.268     -32.918
  C       84.343      22.418     -34.019
  O       83.830      21.246     -33.402
  C       85.371      22.040     -35.083
  O       86.399      21.232     -34.457
  C       84.800      21.249     -36.273
  O       85.062      21.940     -37.497
  C       85.589      19.949     -36.276
  O       85.943      19.509     -37.586
  C       86.820      20.280     -35.441
  N       90.603      16.873     -35.632
  C       90.510      18.132     -36.112
  N       89.517      19.026     -35.936
  C       88.553      18.515     -35.150
  C       88.519      17.260     -34.568
  C       89.599      16.408     -34.851
  N       89.669      15.106     -34.408
  N       87.360      17.092     -33.833
  C       86.687      18.211     -34.005
  N       87.360      19.093     -34.809
  O       81.633      22.405     -33.830
  O       81.577      19.968     -33.044
  H       86.407      20.253     -38.015
  H       80.950      22.008     -34.401
  H       91.342      18.463     -36.727
  H       85.699      18.418     -33.613
  H       87.614      20.740     -36.041
  H       84.985      19.166     -35.801
  H       83.726      21.057     -36.177
  H       85.854      22.959     -35.436
  H       84.828      23.047     -33.265
  H       90.419      14.532     -34.755
  H       88.874      14.720     -33.919
  H       83.514      22.980     -34.461
  P       83.809      22.674     -38.193
  C       83.206      20.421     -39.348
  O       82.751      21.536     -38.593
  O       84.405      23.136     -39.605
  O       83.268      23.821     -37.409
  H       83.922      23.919     -39.930
  H       82.387      19.757     -39.532
  H       83.967      19.906     -38.800
  H       83.606      20.761     -40.280

 6  7  8  9  10  11  12  13  14  15  25  28  32  33  34  35 0
 6-311+G(2d,p)
 ****
 36  39  40 0
 6-311+G(2d,p)
 ****
 1  2  3  4  5  16  17  18  19  20  21  22  23  24 0
 3-21G
 ****
 26  27  29  30  31  37  38  41  42  43  44  45  46  47  48 0
 3-21G
 ****


