%nproc=1
%NoSave
%Mem=1900MB
#P OB98/GEN NMR

erre ene a

0 1
  C     -629.278     679.539    -612.908
  O     -630.387     679.979    -612.152
  H     -628.384     680.067    -612.560
  H     -629.418     679.760    -613.961
  H     -629.123     678.459    -612.765
  P     -631.860     679.506    -612.580
  C     -633.102     678.913    -610.419
  O     -632.284     678.427    -611.465
  C     -633.305     677.892    -609.314
  O     -634.169     676.822    -609.792
  C     -631.991     677.240    -608.829
  O     -631.971     677.216    -607.398
  C     -632.066     675.810    -609.370
  O     -631.272     674.907    -608.615
  C     -633.591     675.584    -609.339
  N     -634.011     674.470    -610.192
  C     -634.914     673.547    -609.612
  O     -635.287     673.693    -608.433
  N     -635.334     672.484    -610.356
  C     -634.859     672.302    -611.549
  N     -635.312     671.212    -612.233
  C     -633.877     673.205    -612.176
  C     -633.508     674.261    -611.445
  O     -631.977     679.034    -613.997
  O     -632.804     680.760    -612.243
  H     -631.459     675.061    -607.661
  H     -633.640     680.693    -612.753
  H     -633.507     672.997    -613.165
  H     -632.786     674.977    -611.825
  H     -633.929     675.375    -608.320
  H     -631.712     675.806    -610.417
  H     -631.099     677.755    -609.190
  H     -633.840     678.359    -608.478
  H     -635.998     670.619    -611.770
  H     -634.077     679.208    -610.845
  H     -635.021     670.985    -613.165
  H     -632.619     679.816    -609.984
  P     -630.608     677.723    -606.710
  C     -631.749     679.846    -605.743
  O     -630.692     679.325    -606.549
  O     -629.520     677.521    -607.876
  O     -630.241     676.968    -605.470
  H     -629.012     676.704    -607.713
  H     -631.688     680.914    -605.721
  H     -631.660     679.463    -604.748
  H     -632.691     679.551    -606.156

 6  7  8  9  10  11  12  13  14  15  16  26  30  31  32  33  35 0
 6-311+G(2d,p)
 ****
 37  38 0
 6-311+G(2d,p)
 ****
 1  2  3  4  5  17  18  19  20  21  22  23  24  25 0
 3-21G
 ****
 27  28  29  34  36  39  40  41  42  43  44  45  46 0
 3-21G
 ****


