%nproc=1
%NoSave
%Mem=1900MB
#P OB98/GEN NMR

erre ene a

0 1
  C     -156.981     359.169     488.991
  O     -156.292     359.711     487.877
  P     -154.690     359.641     487.884
  C     -152.853     359.582     486.030
  O     -154.217     359.385     486.371
  C     -152.729     359.828     484.526
  O     -152.791     358.577     483.803
  C     -153.850     360.688     483.956
  O     -153.635     362.065     484.223
  C     -153.775     360.339     482.475
  O     -152.765     361.113     481.808
  C     -153.380     358.849     482.515
  N     -154.504     357.960     482.232
  C     -154.403     357.203     481.069
  O     -153.443     357.277     480.306
  N     -155.462     356.380     480.794
  C     -156.616     356.288     481.522
  O     -157.551     355.571     481.193
  C     -156.675     357.136     482.721
  C     -155.641     357.924     483.012
  O     -154.374     358.247     488.617
  O     -154.023     360.793     488.557
  H     -153.059     362.044     481.844
  H     -153.557     358.339     489.155
  H     -155.401     355.802     479.976
  H     -157.580     357.086     483.327
  H     -155.677     358.569     483.887
  H     -152.595     358.650     481.775
  H     -154.721     360.539     481.956
  H     -154.815     360.359     484.353
  H     -151.752     360.288     484.330
  H     -152.283     358.689     486.306
  H     -152.456     360.434     486.593
  P     -154.846     363.067     483.899
  C     -155.309     365.544     484.590
  O     -154.571     364.360     484.812
  O     -156.065     362.303     484.606
  O     -155.026     363.307     482.438
  H     -155.778     361.815     485.396
  H     -156.338     365.327     484.297
  H     -154.819     366.135     483.814
  H     -155.322     366.119     485.520
  H     -158.035     359.285     488.849
  H     -156.682     359.683     489.880
  H     -156.746     358.129     489.084

 3  4  5  6  7  8  9  10  11  12  13  23  28  29  30  31  32 0
 6-311+G(2d,p)
 ****
 33  34 0
 6-311+G(2d,p)
 ****
 1  2  14  15  16  17  18  19  20  21  22  24  25  26 0
 3-21G
 ****
 27  35  36  37  38  39  40  41  42  43  44  45 0
 3-21G
 ****


