%nproc=1
%NoSave
%Mem=1900MB
#P OB98/GEN NMR

erre ene a

0 1
  C      -37.552      48.203    -431.141
  O      -38.477      49.256    -431.313
  H      -36.541      48.613    -431.211
  H      -37.678      47.451    -431.923
  H      -37.672      47.743    -430.157
  P      -40.044      48.914    -431.256
  C      -40.602      50.340    -429.165
  O      -40.414      49.038    -429.695
  C      -41.918      50.415    -428.398
  O      -43.051      50.310    -429.288
  C      -42.130      49.300    -427.380
  O      -41.341      49.435    -426.209
  C      -43.611      49.479    -427.100
  O      -43.809      50.622    -426.249
  C      -44.151      49.738    -428.526
  N      -44.646      48.522    -429.170
  C      -45.852      48.004    -428.687
  O      -46.445      48.552    -427.758
  N      -46.348      46.848    -429.244
  C      -45.683      46.251    -430.185
  N      -46.217      45.106    -430.696
  C      -44.400      46.753    -430.711
  C      -43.944      47.878    -430.167
  O      -40.462      47.641    -431.916
  O      -40.760      50.212    -431.859
  H      -43.429      51.389    -426.715
  H      -41.734      50.049    -431.856
  H      -43.872      46.202    -431.475
  H      -43.005      48.308    -430.497
  H      -44.956      50.482    -428.509
  H      -44.062      48.623    -426.597
  H      -41.980      48.315    -427.840
  H      -41.970      51.406    -427.928
  H      -47.097      44.787    -430.313
  H      -40.593      51.052    -429.998
  H      -45.733      44.538    -431.376
  H      -39.787      50.587    -428.477
  P      -41.136      48.118    -425.312
  C      -39.075      47.452    -426.772
  O      -40.329      47.076    -426.221
  O      -42.611      47.504    -425.230
  O      -40.535      48.354    -423.964
  H      -43.041      47.750    -424.388
  H      -38.680      46.640    -427.347
  H      -38.396      47.692    -425.981
  H      -39.204      48.306    -427.403

 6  7  8  9  10  11  12  13  14  15  16  26  30  31  32  33  35 0
 6-311+G(2d,p)
 ****
 37  38 0
 6-311+G(2d,p)
 ****
 1  2  3  4  5  17  18  19  20  21  22  23  24  25 0
 3-21G
 ****
 27  28  29  34  36  39  40  41  42  43  44  45  46 0
 3-21G
 ****


