%nproc=1
%NoSave
%Mem=1900MB
#P OB98/GEN NMR

erre ene a

0 1
  C     -214.918    -493.454      -6.181
  O     -214.394    -493.024      -7.423
  P     -213.746    -491.566      -7.552
  C     -211.297    -492.293      -7.309
  O     -212.370    -491.562      -6.729
  C     -210.197    -491.334      -7.775
  O     -210.654    -490.554      -8.895
  C     -209.770    -490.324      -6.722
  O     -208.932    -490.927      -5.753
  C     -209.090    -489.265      -7.585
  O     -207.744    -489.656      -7.896
  C     -209.962    -489.289      -8.852
  N     -210.513    -484.280      -9.636
  C     -209.415    -485.054      -9.505
  N     -209.350    -486.382      -9.254
  C     -210.584    -486.893      -9.125
  C     -211.793    -486.224      -9.193
  C     -211.732    -484.851      -9.492
  N     -212.845    -484.064      -9.694
  N     -212.844    -487.091      -8.972
  C     -212.273    -488.263      -8.754
  N     -210.915    -488.203      -8.900
  O     -214.669    -490.430      -7.252
  O     -213.256    -491.504      -9.077
  H     -207.460    -489.127      -8.669
  H     -213.712    -490.777      -9.534
  H     -208.463    -484.546      -9.616
  H     -212.800    -489.181      -8.510
  H     -209.354    -489.227      -9.763
  H     -209.042    -488.286      -7.093
  H     -210.657    -489.882      -6.245
  H     -209.345    -491.936      -8.108
  H     -211.682    -492.856      -8.164
  H     -212.689    -483.132     -10.044
  H     -213.733    -484.520      -9.890
  H     -210.896    -492.994      -6.574
  P     -208.804    -490.278      -4.298
  C     -210.639    -491.750      -3.285
  O     -210.231    -490.428      -3.580
  O     -208.213    -488.904      -4.253
  O     -207.895    -491.324      -3.499
  H     -207.351    -490.846      -2.839
  H     -211.001    -492.240      -4.197
  H     -211.449    -491.708      -2.554
  H     -209.809    -492.332      -2.864
  H     -215.307    -494.446      -6.282
  H     -215.702    -492.793      -5.877
  H     -214.141    -493.448      -5.445

 3  4  5  6  7  8  9  10  11  12  22  25  29  30  31  32 0
 6-311+G(2d,p)
 ****
 33  36  37 0
 6-311+G(2d,p)
 ****
 1  2  13  14  15  16  17  18  19  20  21  23  24  26 0
 3-21G
 ****
 27  28  34  35  38  39  40  41  42  43  44  45  46  47  48 0
 3-21G
 ****


