%nproc=1
%NoSave
%Mem=1900MB
#P OB98/GEN NMR

erre ene a

0 1
  C     -140.824       5.354    -108.437
  O     -141.478       5.817    -109.623
  P     -140.586       6.636    -110.676
  C     -140.209       4.617    -112.256
  O     -140.725       5.933    -112.115
  C     -141.106       3.755    -113.157
  O     -142.325       3.373    -112.457
  C     -141.536       4.460    -114.449
  O     -141.643       3.463    -115.477
  C     -142.929       4.965    -114.116
  O     -143.680       5.251    -115.293
  C     -143.443       3.803    -113.265
  N     -148.505       4.478    -113.154
  C     -147.667       4.082    -114.132
  N     -146.321       3.949    -114.089
  C     -145.862       4.231    -112.859
  C     -146.594       4.660    -111.760
  C     -147.985       4.783    -111.939
  N     -148.836       5.210    -110.944
  N     -145.757       4.897    -110.684
  C     -144.545       4.627    -111.129
  N     -144.562       4.191    -112.427
  O     -139.088       6.289    -110.229
  O     -140.834       8.113    -110.660
  H     -143.096       5.738    -115.918
  H     -138.679       7.070    -109.807
  H     -148.138       3.846    -115.086
  H     -143.631       4.730    -110.563
  H     -143.775       2.955    -113.874
  H     -142.860       5.884    -113.524
  H     -140.870       5.263    -114.777
  H     -140.563       2.834    -113.403
  H     -140.121       4.139    -111.275
  H     -149.814       5.302    -111.165
  H     -148.450       5.487    -110.050
  H     -139.186       4.676    -112.652
  P     -140.330       3.204    -116.360
  C     -138.890       2.216    -114.431
  O     -139.556       1.985    -115.664
  O     -139.404       4.475    -116.045
  O     -140.596       3.055    -117.823
  H     -138.793       4.639    -116.788
  H     -139.050       1.354    -113.777
  H     -139.267       3.115    -113.925
  H     -137.823       2.329    -114.619
  H     -141.526       4.827    -107.825
  H     -140.435       6.190    -107.895
  H     -140.022       4.698    -108.705

 3  4  5  6  7  8  9  10  11  12  22  25  29  30  31  32 0
 6-311+G(2d,p)
 ****
 33  36  37 0
 6-311+G(2d,p)
 ****
 1  2  13  14  15  16  17  18  19  20  21  23  24  26 0
 3-21G
 ****
 27  28  34  35  38  39  40  41  42  43  44  45  46  47  48 0
 3-21G
 ****


