%nproc=1
%NoSave
%Mem=1900MB
#P OB98/GEN NMR

erre ene a

0 1
  C      104.689    -422.115     768.216
  O      104.126    -421.511     769.363
  H      105.541    -421.526     767.872
  H      105.041    -423.114     768.482
  H      103.947    -422.203     767.417
  P      103.279    -420.165     769.145
  C      101.379    -421.151     770.615
  O      101.738    -420.557     769.373
  C       99.857    -421.151     770.786
  O       99.451    -419.826     771.233
  C       99.076    -421.481     769.508
  O       97.947    -422.289     769.865
  C       98.581    -420.124     769.042
  O       97.402    -420.208     768.245
  C       98.372    -419.408     770.372
  N       96.039    -415.100     771.747
  C       96.012    -416.345     772.270
  N       96.711    -417.428     771.869
  C       97.547    -417.115     770.867
  C       97.690    -415.886     770.235
  C       96.864    -414.849     770.706
  N       96.828    -413.596     770.144
  N       98.610    -415.983     769.209
  C       98.996    -417.237     769.203
  N       98.379    -417.964     770.186
  O      103.380    -419.951     767.555
  O      103.757    -418.970     769.899
  H       97.244    -419.336     767.827
  H      104.184    -419.442     767.345
  H       95.339    -416.500     773.108
  H       99.684    -417.683     768.499
  H       97.421    -419.673     770.852
  H       99.362    -419.636     768.446
  H       99.670    -421.998     768.743
  H       99.603    -421.850     771.593
  H      101.830    -420.578     771.425
  H       96.133    -412.950     770.477
  H       97.362    -413.428     769.296
  H      101.762    -422.176     770.648
  P       97.966    -423.826     769.422
  C       97.375    -424.387     771.897
  O       98.115    -424.737     770.731
  O       99.393    -423.981     768.702
  O       96.848    -424.214     768.508
  H       99.337    -424.636     767.981
  H       97.584    -425.090     772.676
  H       96.329    -424.403     771.674
  H       97.656    -423.405     772.217

 6  7  8  9  10  11  12  13  14  15  25  28  32  33  34  35 0
 6-311+G(2d,p)
 ****
 36  39  40 0
 6-311+G(2d,p)
 ****
 1  2  3  4  5  16  17  18  19  20  21  22  23  24 0
 3-21G
 ****
 26  27  29  30  31  37  38  41  42  43  44  45  46  47 0
 3-21G
 ****
 48 0
 3-21G
 ****


