%nproc=1
%NoSave
%Mem=1900MB
#P OB98/GEN NMR

erre ene a

0 1
  C     -191.754      26.159    -339.750
  O     -191.246      26.362    -338.445
  H     -192.818      26.408    -339.753
  H     -191.636      25.111    -340.040
  H     -191.235      26.808    -340.460
  P     -189.682      26.072    -338.233
  C     -190.297      24.388    -336.367
  O     -189.577      25.563    -336.716
  C     -190.995      24.571    -335.020
  O     -190.030      24.622    -333.954
  C     -191.809      25.853    -334.902
  O     -193.077      25.708    -335.521
  C     -191.930      25.977    -333.393
  O     -192.967      25.099    -332.912
  C     -190.556      25.478    -332.905
  N     -186.850      27.015    -329.703
  C     -187.741      26.004    -329.624
  N     -188.724      25.680    -330.493
  C     -188.739      26.528    -331.532
  C     -187.896      27.606    -331.745
  C     -186.905      27.835    -330.778
  N     -185.990      28.864    -330.864
  N     -188.215      28.251    -332.924
  C     -189.198      27.544    -333.436
  N     -189.578      26.511    -332.614
  O     -188.761      27.175    -338.629
  O     -189.510      24.712    -339.062
  H     -192.587      24.204    -332.847
  H     -190.286      24.137    -338.939
  H     -187.651      25.365    -328.749
  H     -189.658      27.722    -334.401
  H     -190.643      24.870    -331.997
  H     -192.197      26.987    -333.078
  H     -191.257      26.716    -335.289
  H     -191.625      23.691    -334.846
  H     -189.627      23.526    -336.324
  H     -185.429      29.059    -330.050
  H     -186.111      29.544    -331.601
  H     -191.039      24.212    -337.153
  P     -193.593      26.783    -336.590
  C     -195.106      27.692    -334.717
  O     -195.033      27.280    -336.078
  O     -193.564      26.330    -338.010
  O     -192.664      28.063    -336.354
  H     -192.450      28.489    -337.205
  H     -196.106      28.000    -334.491
  H     -194.436      28.510    -334.556
  H     -194.832      26.876    -334.082

 6  7  8  9  10  11  12  13  14  15  25  28  32  33  34  35 0
 6-311+G(2d,p)
 ****
 36  39  40 0
 6-311+G(2d,p)
 ****
 1  2  3  4  5  16  17  18  19  20  21  22  23  24 0
 3-21G
 ****
 26  27  29  30  31  37  38  41  42  43  44  45  46  47 0
 3-21G
 ****
 48 0
 3-21G
 ****


