%nproc=1
%NoSave
%Mem=1900MB
#P OB98/GEN NMR

erre ene a

0 1
  C      192.584      45.989       3.892
  O      191.941      46.353       5.097
  H      193.664      46.091       4.025
  H      192.271      46.647       3.076
  H      192.361      44.949       3.637
  P      190.342      46.292       5.151
  C      190.091      48.825       4.712
  O      189.824      47.508       4.245
  C      188.932      49.751       4.362
  O      188.716      49.771       2.937
  C      187.601      49.343       4.998
  O      187.538      49.785       6.341
  C      186.628      50.069       4.082
  O      186.604      51.469       4.411
  C      187.284      49.858       2.705
  N      183.390      47.483       0.494
  C      183.427      48.692       1.161
  N      182.250      49.338       1.296
  N      184.515      49.208       1.670
  C      185.603      48.415       1.521
  C      185.686      47.193       0.893
  C      184.486      46.659       0.287
  O      184.410      45.597      -0.329
  N      186.944      46.657       0.998
  C      187.631      47.575       1.654
  N      186.857      48.655       2.009
  O      189.725      46.252       6.518
  O      189.972      45.000       4.286
  H      185.994      51.894       3.779
  H      189.894      44.208       4.848
  H      182.514      47.129       0.141
  H      188.683      47.506       1.898
  H      187.109      50.701       2.029
  H      185.607      49.697       4.160
  H      181.362      48.863       1.182
  H      187.424      48.268       4.910
  H      182.247      50.200       1.826
  H      189.213      50.769       4.659
  H      191.014      49.164       4.228
  H      190.245      48.820       5.796
  P      187.018      48.812       7.511
  C      184.834      50.184       7.690
  O      185.420      48.909       7.446
  O      187.606      49.077       8.855
  O      187.298      47.341       6.962
  H      188.200      47.000       7.185
  H      183.769      50.107       7.616
  H      185.192      50.886       6.966
  H      185.100      50.517       8.671

 6  7  8  9  10  11  12  13  14  15  26  29  33  34 0
 6-311+G(2d,p)
 ****
 36  38  39  40  41 0
 6-311+G(2d,p)
 ****
 1  2  3  4  5  16  17  18  19  20  21  22  23  24  25 0
 3-21G
 ****
 27  28  30  31  32  35  37  42  43  44  45  46  47 0
 3-21G
 ****
 48  49 0
 3-21G
 ****


