%nproc=1
%NoSave
%Mem=1900MB
#P OB98/GEN NMR

erre ene a

0 1
  C      543.884     612.616     797.674
  O      544.141     613.721     798.511
  H      542.871     612.251     797.870
  H      544.593     611.810     797.902
  H      543.959     612.883     796.619
  P      545.439     614.625     798.230
  C      547.088     613.133     799.530
  O      546.703     613.631     798.254
  C      548.485     612.493     799.466
  O      548.410     611.307     798.620
  C      549.568     613.417     798.875
  O      550.812     613.072     799.501
  C      549.568     613.000     797.416
  O      550.751     613.424     796.761
  C      549.372     611.489     797.547
  N      548.925     610.870     796.303
  C      549.910     610.523     795.392
  O      551.119     610.730     795.580
  N      549.489     609.943     794.227
  C      548.184     609.754     793.865
  O      547.862     609.267     792.786
  C      547.176     610.186     794.849
  C      547.587     610.715     796.009
  O      545.587     615.837     799.079
  O      545.330     614.999     796.669
  H      551.523     612.954     797.151
  H      545.744     615.861     796.504
  H      550.201     609.684     793.559
  H      546.133     610.054     794.583
  H      546.861     611.035     796.757
  H      550.302     610.999     797.852
  H      548.724     613.446     796.887
  H      549.352     614.478     799.021
  H      548.759     612.147     800.477
  H      546.354     612.381     799.845
  H      547.090     613.946     800.262
  P      551.604     614.075     800.462
  C      553.946     613.049     800.072
  O      553.126     614.204     799.922
  O      551.510     613.757     801.907
  O      550.989     615.520     800.150
  H      551.066     616.084     800.931
  H      554.922     613.251     799.683
  H      553.511     612.231     799.537
  H      554.021     612.797     801.109

 6  7  8  9  10  11  12  13  14  15  16  26  31  32  33  34  35 0
 6-311+G(2d,p)
 ****
 36  37 0
 6-311+G(2d,p)
 ****
 1  2  3  4  5  17  18  19  20  21  22  23  24  25 0
 3-21G
 ****
 27  28  29  30  38  39  40  41  42  43  44  45 0
 3-21G
 ****


