%nproc=1
%NoSave
%Mem=1900MB
#P OB98/GEN NMR

erre ene a

0 1
  C        6.166       2.893      59.684
  O        6.406       2.918      61.078
  H        5.613       3.793      59.407
  H        5.568       2.016      59.421
  H        7.113       2.878      59.140
  P        7.234       1.684      61.683
  C        4.918       0.665      62.230
  O        6.199       0.460      61.648
  C        4.600      -0.446      63.226
  O        3.283      -0.272      63.776
  C        4.618      -1.848      62.630
  O        5.945      -2.339      62.530
  C        3.812      -2.610      63.671
  O        4.648      -2.920      64.803
  C        2.739      -1.584      64.079
  N       -1.261      -4.679      63.200
  C       -0.064      -4.903      63.783
  N        0.966      -4.046      63.944
  C        0.671      -2.843      63.428
  C       -0.509      -2.466      62.804
  C       -1.511      -3.445      62.706
  N       -2.736      -3.208      62.120
  N       -0.449      -1.149      62.400
  C        0.724      -0.723      62.820
  N        1.455      -1.720      63.416
  O        7.917       1.938      62.981
  O        8.208       1.342      60.458
  H        5.422      -3.411      64.469
  H        7.739       1.438      59.611
  H        0.087      -5.905      64.174
  H        1.085       0.295      62.734
  H        2.537      -1.615      65.156
  H        3.430      -3.558      63.289
  H        4.089      -1.883      61.672
  H        5.312      -0.366      64.057
  H        4.148       0.701      61.453
  H       -3.326      -4.005      61.938
  H       -2.872      -2.329      61.643
  H        4.941       1.634      62.739
  P        6.615      -2.597      61.097
  C        5.471      -4.895      60.958
  O        5.661      -3.634      60.328
  O        8.051      -2.987      61.134
  O        6.388      -1.234      60.296
  H        7.168      -1.030      59.746
  H        4.822      -5.499      60.359
  H        5.033      -4.749      61.923
  H        6.416      -5.386      61.066

 6  7  8  9  10  11  12  13  14  15  25  28  32  33  34  35 0
 6-311+G(2d,p)
 ****
 36  39  40 0
 6-311+G(2d,p)
 ****
 1  2  3  4  5  16  17  18  19  20  21  22  23  24 0
 3-21G
 ****
 26  27  29  30  31  37  38  41  42  43  44  45  46  47 0
 3-21G
 ****
 48 0
 3-21G
 ****


