%nproc=1
%NoSave
%Mem=1900MB
#P OB98/GEN NMR

erre ene a

0 1
  C      318.382     147.098     -28.758
  O      318.432     145.731     -29.161
  P      319.769     144.949     -29.555
  C      320.990     144.378     -27.307
  O      320.136     143.954     -28.358
  C      321.959     143.280     -26.834
  O      323.032     143.880     -26.060
  C      321.246     142.301     -25.899
  O      320.482     141.236     -26.435
  C      322.318     141.864     -24.911
  O      322.963     140.651     -25.305
  C      323.313     143.026     -24.932
  N      324.425     143.199     -19.941
  C      324.539     142.146     -20.823
  N      324.957     140.970     -20.308
  N      324.253     142.231     -22.095
  C      323.765     143.437     -22.460
  C      323.584     144.552     -21.674
  C      323.961     144.465     -20.278
  O      323.889     145.371     -19.456
  N      323.044     145.592     -22.390
  C      322.872     145.098     -23.599
  N      323.303     143.793     -23.697
  O      320.873     145.791     -30.097
  O      319.285     143.961     -30.735
  H      323.577     140.858     -26.032
  H      320.044     143.861     -31.345
  H      324.682     143.084     -18.974
  H      322.454     145.640     -24.437
  H      324.341     142.668     -25.064
  H      321.876     141.674     -23.924
  H      325.080     140.805     -19.320
  H      320.530     142.888     -25.310
  H      324.835     140.144     -20.900
  H      322.441     142.794     -27.686
  H      320.347     144.701     -26.484
  H      321.557     145.259     -27.619
  P      318.892     141.079     -26.358
  C      318.382     141.435     -28.843
  O      318.382     140.515     -27.763
  O      318.353     142.587     -26.369
  O      318.385     140.343     -25.158
  H      317.427     142.621     -26.067
  H      317.745     141.047     -29.641
  H      319.401     141.550     -29.227
  H      318.002     142.413     -28.526
  H      317.368     147.372     -28.552
  H      318.766     147.716     -29.543
  H      318.974     147.232     -27.877

 3  4  5  6  7  8  9  10  11  12  23  26  30  31 0
 6-311+G(2d,p)
 ****
 33  35  36  37  38 0
 6-311+G(2d,p)
 ****
 1  2  13  14  15  16  17  18  19  20  21  22  24  25 0
 3-21G
 ****
 27  28  29  32  34  39  40  41  42  43  44  45  46  47  48  49 0
 3-21G
 ****


