%nproc=1
%NoSave
%Mem=1900MB
#P OB98/GEN NMR

erre ene a

0 1
  C     -213.071    -197.843    -337.600
  O     -212.064    -198.128    -338.549
  H     -213.921    -197.385    -338.116
  H     -212.697    -197.142    -336.850
  H     -213.406    -198.764    -337.116
  P     -210.698    -198.754    -337.990
  C     -208.306    -197.767    -338.230
  O     -209.656    -197.541    -337.856
  C     -207.950    -196.890    -339.427
  O     -208.773    -197.250    -340.559
  C     -208.196    -195.403    -339.204
  O     -207.168    -194.797    -338.437
  C     -208.235    -194.898    -340.638
  O     -206.912    -194.654    -341.144
  C     -208.905    -196.074    -341.386
  N     -210.300    -195.790    -341.716
  C     -210.663    -196.015    -343.042
  O     -209.876    -196.425    -343.895
  N     -211.956    -195.717    -343.366
  C     -212.895    -195.189    -342.521
  O     -214.018    -194.876    -342.893
  C     -212.455    -194.985    -341.131
  C     -211.195    -195.281    -340.798
  O     -210.146    -199.595    -339.239
  O     -210.842    -199.593    -336.764
  H     -210.318    -200.543    -339.100
  H     -207.019    -194.441    -342.092
  H     -212.237    -195.865    -344.323
  H     -213.176    -194.575    -340.431
  H     -210.845    -195.119    -339.781
  H     -208.373    -196.286    -342.321
  H     -208.784    -193.960    -340.720
  H     -209.181    -195.247    -338.747
  H     -206.900    -197.074    -339.695
  H     -208.173    -198.817    -338.503
  H     -207.657    -197.540    -337.375
  P     -207.553    -193.575    -337.470
  C     -208.272    -191.083    -337.883
  O     -207.978    -192.359    -338.424
  O     -206.113    -193.158    -336.915
  O     -208.555    -193.932    -336.423
  H     -205.408    -193.251    -337.577
  H     -208.533    -190.412    -338.674
  H     -207.413    -190.708    -337.366
  H     -209.092    -191.165    -337.200

 6  7  8  9  10  11  12  13  14  15  16  27  31  32  33  34  35 0
 6-311+G(2d,p)
 ****
 36  37 0
 6-311+G(2d,p)
 ****
 1  2  3  4  5  17  18  19  20  21  22  23  24  25 0
 3-21G
 ****
 26  28  29  30  38  39  40  41  42  43  44  45 0
 3-21G
 ****


