%nproc=1
%NoSave
%Mem=1900MB
#P OB98/GEN NMR

erre ene a

0 1
  C      197.717    -123.706     236.356
  O      197.529    -124.762     235.430
  H      198.389    -122.963     235.909
  H      198.174    -124.074     237.278
  H      196.761    -123.225     236.581
  P      196.706    -126.049     235.909
  C      196.063    -126.392     233.425
  O      196.578    -126.983     234.613
  C      195.334    -127.441     232.592
  O      194.495    -128.254     233.435
  C      194.411    -126.837     231.545
  O      195.145    -126.344     230.444
  C      193.499    -128.015     231.249
  O      194.125    -128.943     230.356
  C      193.332    -128.633     232.659
  N      192.102    -128.215     233.316
  C      190.932    -128.859     232.898
  O      190.974    -129.726     232.027
  N      189.736    -128.475     233.466
  C      189.714    -127.556     234.379
  N      188.504    -127.229     234.898
  C      190.927    -126.863     234.856
  C      192.073    -127.234     234.286
  O      195.411    -125.799     236.621
  O      197.751    -126.845     236.825
  H      193.428    -129.579     230.098
  H      197.684    -126.551     237.754
  H      190.860    -126.105     235.622
  H      193.010    -126.778     234.584
  H      193.337    -129.730     232.600
  H      192.563    -127.695     230.798
  H      193.799    -126.043     231.991
  H      196.080    -128.094     232.130
  H      187.697    -127.724     234.532
  H      196.914    -125.994     232.869
  H      188.372    -126.593     235.671
  H      195.387    -125.562     233.667
  P      194.503    -125.264     229.452
  C      196.962    -124.877     228.771
  O      195.614    -125.009     228.321
  O      193.965    -124.031     230.108
  O      193.387    -126.106     228.669
  H      192.600    -126.279     229.241
  H      197.604    -124.712     227.931
  H      197.259    -125.773     229.276
  H      197.034    -124.048     229.444

 6  7  8  9  10  11  12  13  14  15  16  26  30  31  32  33  35 0
 6-311+G(2d,p)
 ****
 37  38 0
 6-311+G(2d,p)
 ****
 1  2  3  4  5  17  18  19  20  21  22  23  24  25 0
 3-21G
 ****
 27  28  29  34  36  39  40  41  42  43  44  45  46 0
 3-21G
 ****


