%nproc=1
%NoSave
%Mem=1900MB
#P OB98/GEN NMR

erre ene a

0 1
  C      299.045     418.379    -248.047
  O      298.144     417.296    -247.964
  H      298.533     419.290    -247.727
  H      299.382     418.508    -249.078
  H      299.906     418.207    -247.392
  P      298.701     415.855    -248.394
  C      298.543     414.771    -246.041
  O      299.395     415.229    -247.086
  C      299.327     414.641    -244.732
  O      300.246     413.516    -244.840
  C      300.158     415.886    -244.384
  O      300.117     416.081    -242.966
  C      301.562     415.482    -244.784
  O      302.554     416.233    -244.092
  C      301.541     413.992    -244.438
  N      305.814     411.460    -243.650
  C      304.940     412.039    -242.753
  N      305.248     411.938    -241.441
  N      303.854     412.671    -243.111
  C      303.656     412.682    -244.452
  C      304.448     412.157    -245.441
  C      305.664     411.473    -245.032
  O      306.489     410.960    -245.778
  N      303.920     412.397    -246.686
  C      302.810     413.075    -246.444
  N      302.604     413.268    -245.104
  O      299.947     416.204    -249.336
  O      297.715     414.957    -249.073
  H      303.433     415.865    -244.328
  H      300.076     415.508    -250.014
  H      306.644     410.993    -243.321
  H      302.124     413.448    -247.197
  H      301.656     413.812    -243.361
  H      301.710     415.630    -245.860
  H      306.049     411.433    -241.090
  H      299.821     416.793    -244.892
  H      304.612     412.341    -240.765
  H      298.627     414.396    -243.931
  H      298.138     413.793    -246.322
  H      297.719     415.479    -245.913
  P      299.366     417.397    -242.418
  C      296.867     416.684    -242.422
  O      297.889     417.448    -243.051
  O      300.137     418.581    -243.175
  O      299.438     417.559    -240.937
  H      300.693     419.065    -242.535
  H      295.946     416.816    -242.951
  H      296.748     417.012    -241.411
  H      297.138     415.649    -242.432

 6  7  8  9  10  11  12  13  14  15  26  29  33  34 0
 6-311+G(2d,p)
 ****
 36  38  39  40  41 0
 6-311+G(2d,p)
 ****
 1  2  3  4  5  16  17  18  19  20  21  22  23  24  25 0
 3-21G
 ****
 27  28  30  31  32  35  37  42  43  44  45  46  47 0
 3-21G
 ****
 48  49 0
 3-21G
 ****


