%nproc=1
%NoSave
%Mem=1900MB
#P OB98/GEN NMR

erre ene a

0 1
  C      214.565     162.461    -168.097
  O      215.506     163.347    -168.669
  H      213.766     163.047    -167.636
  H      215.040     161.845    -167.330
  H      214.134     161.822    -168.872
  P      216.823     162.680    -169.302
  C      215.494     161.755    -171.347
  O      216.244     161.462    -170.177
  C      215.770     160.706    -172.419
  O      217.120     160.833    -172.920
  C      215.654     159.263    -171.938
  O      214.315     158.814    -171.819
  C      216.390     158.554    -173.062
  O      215.552     158.507    -174.232
  C      217.589     159.502    -173.270
  N      218.755     159.138    -172.460
  C      219.597     158.149    -172.981
  O      219.353     157.623    -174.065
  N      220.685     157.750    -172.242
  C      220.925     158.303    -171.093
  N      222.015     157.866    -170.407
  C      220.073     159.356    -170.512
  C      219.018     159.721    -171.240
  O      217.494     161.929    -168.058
  O      217.738     163.603    -170.036
  H      214.710     158.103    -173.954
  H      218.240     161.360    -168.371
  H      220.307     159.779    -169.546
  H      218.346     160.491    -170.879
  H      217.891     159.528    -174.324
  H      216.657     157.525    -172.822
  H      216.203     159.105    -171.003
  H      215.090     160.902    -173.258
  H      222.545     157.101    -170.804
  H      215.789     162.747    -171.705
  H      222.199     158.124    -169.446
  H      214.425     161.764    -171.115
  P      214.058     157.485    -170.957
  C      213.615     158.746    -168.722
  O      214.437     157.835    -169.439
  O      215.240     156.515    -171.420
  O      212.711     156.861    -171.150
  H      214.947     155.583    -171.423
  H      214.001     158.871    -167.732
  H      212.618     158.362    -168.670
  H      213.608     159.691    -169.224

 6  7  8  9  10  11  12  13  14  15  16  26  30  31  32  33  35 0
 6-311+G(2d,p)
 ****
 37  38 0
 6-311+G(2d,p)
 ****
 1  2  3  4  5  17  18  19  20  21  22  23  24  25 0
 3-21G
 ****
 27  28  29  34  36  39  40  41  42  43  44  45  46 0
 3-21G
 ****


