%nproc=1
%NoSave
%Mem=1900MB
#P OB98/GEN NMR

erre ene a

0 1
  C      393.849    1199.422     217.948
  O      393.834    1200.250     216.798
  H      394.176    1200.014     218.801
  H      394.545    1198.594     217.800
  H      392.843    1199.034     218.152
  P      393.200    1199.620     215.463
  C      394.672    1200.872     213.686
  O      393.417    1200.731     214.326
  C      394.509    1201.576     212.336
  O      393.660    1200.771     211.486
  C      393.871    1202.964     212.440
  O      394.489    1203.822     211.473
  C      392.418    1202.728     212.062
  O      391.790    1203.905     211.581
  C      392.546    1201.576     211.051
  N      391.318    1200.789     210.934
  C      390.444    1201.143     209.912
  O      390.707    1202.093     209.168
  N      389.261    1200.453     209.774
  C      388.962    1199.529     210.641
  N      387.769    1198.893     210.457
  C      389.842    1199.155     211.767
  C      390.999    1199.811     211.846
  O      391.637    1199.702     215.784
  O      393.700    1198.254     215.132
  H      392.397    1204.326     210.919
  H      391.362    1200.522     216.219
  H      389.539    1198.386     212.466
  H      391.702    1199.600     212.638
  H      392.800    1201.981     210.052
  H      391.862    1202.382     212.948
  H      393.964    1203.413     213.430
  H      395.489    1201.627     211.839
  H      387.189    1199.193     209.693
  H      395.131    1199.894     213.525
  H      387.409    1198.195     211.095
  H      395.323    1201.453     214.347
  P      395.289    1205.116     211.965
  C      394.393    1206.794     210.220
  O      395.521    1206.097     210.713
  O      396.490    1204.859     212.803
  O      394.173    1205.926     212.806
  H      394.614    1206.312     213.585
  H      394.686    1207.407     209.393
  H      393.988    1207.411     210.995
  H      393.652    1206.092     209.899

 6  7  8  9  10  11  12  13  14  15  16  26  30  31  32  33  35 0
 6-311+G(2d,p)
 ****
 37  38 0
 6-311+G(2d,p)
 ****
 1  2  3  4  5  17  18  19  20  21  22  23  24  25 0
 3-21G
 ****
 27  28  29  34  36  39  40  41  42  43  44  45  46 0
 3-21G
 ****


