%nproc=1
%NoSave
%Mem=1900MB
#P OB98/GEN NMR

erre ene a

0 1
  C      -65.597      89.630     878.173
  O      -65.263      88.617     877.237
  P      -65.937      88.543     875.787
  C      -64.283      89.927     874.308
  O      -64.754      88.626     874.688
  C      -62.879      89.891     873.681
  O      -61.928      89.364     874.627
  C      -62.868      88.930     872.480
  O      -63.294      89.383     871.210
  C      -61.467      88.302     872.494
  O      -60.583      88.933     871.588
  C      -61.014      88.508     873.938
  N      -57.799      84.860     875.428
  C      -57.519      86.118     874.912
  N      -56.233      86.340     874.587
  N      -58.418      87.043     874.721
  C      -59.683      86.622     875.005
  C      -60.097      85.420     875.537
  C      -59.066      84.430     875.780
  O      -59.294      83.265     876.156
  N      -61.452      85.331     875.632
  C      -61.889      86.469     875.118
  N      -60.858      87.278     874.704
  O      -67.172      89.345     875.567
  O      -66.355      86.984     875.711
  H      -59.812      88.349     871.436
  H      -67.177      86.917     875.199
  H      -57.074      84.179     875.476
  H      -62.930      86.748     875.007
  H      -60.041      89.020     873.965
  H      -61.521      87.258     872.190
  H      -55.531      85.592     874.579
  H      -63.550      88.101     872.719
  H      -56.018      87.186     874.057
  H      -62.522      90.899     873.444
  H      -64.289      90.546     875.220
  H      -64.981      90.368     873.606
  P      -63.349      88.514     869.858
  C      -65.752      87.813     870.440
  O      -64.877      88.330     869.434
  O      -62.920      87.026     870.330
  O      -62.442      88.991     868.767
  H      -62.590      86.519     869.566
  H      -66.657      87.447     869.969
  H      -66.001      88.604     871.148
  H      -65.275      86.986     870.976
  H      -65.031      89.488     879.070
  H      -66.642      89.577     878.399
  H      -65.371      90.589     877.756

 3  4  5  6  7  8  9  10  11  12  23  26  30  31 0
 6-311+G(2d,p)
 ****
 33  35  36  37  38 0
 6-311+G(2d,p)
 ****
 1  2  13  14  15  16  17  18  19  20  21  22  24  25 0
 3-21G
 ****
 27  28  29  32  34  39  40  41  42  43  44  45  46  47  48  49 0
 3-21G
 ****


