%nproc=1
%NoSave
%Mem=1900MB
#P OB98/GEN NMR

erre ene a

0 1
  C       -7.933      -2.011     296.036
  O       -6.548      -1.739     296.148
  P       -5.911      -0.409     295.523
  C       -3.870      -1.687     294.607
  O       -5.023      -0.915     294.282
  C       -3.752      -2.876     293.660
  O       -5.012      -3.601     293.674
  C       -3.501      -2.541     292.188
  O       -2.143      -2.320     291.859
  C       -3.983      -3.819     291.513
  O       -2.970      -4.839     291.628
  C       -5.207      -4.191     292.366
  N       -8.793      -5.010     288.799
  C       -7.685      -5.702     289.145
  N       -6.761      -5.411     290.094
  C       -7.110      -4.293     290.751
  C       -8.212      -3.480     290.515
  C       -9.082      -3.881     289.487
  N      -10.225      -3.185     289.156
  N       -8.222      -2.402     291.388
  C       -7.144      -2.571     292.135
  N       -6.450      -3.700     291.794
  O       -5.208       0.465     296.508
  O       -7.140       0.324     294.812
  H       -2.819      -4.982     292.583
  H       -6.916       1.261     294.630
  H       -7.502      -6.618     288.578
  H       -6.841      -1.906     292.913
  H       -5.304      -5.280     292.506
  H       -4.194      -3.687     290.452
  H       -4.134      -1.700     291.859
  H       -2.969      -3.553     294.045
  H       -3.980      -2.058     295.637
  H      -10.859      -3.613     288.496
  H      -10.528      -2.443     289.768
  H       -2.973      -1.060     294.566
  P       -1.736      -0.844     291.353
  C       -0.578      -1.845     289.231
  O       -1.544      -0.964     289.766
  O       -0.596      -0.226     292.098
  O       -3.117      -0.026     291.494
  H       -3.820      -0.304     290.891
  H       -0.719      -1.909     288.145
  H       -0.688      -2.850     289.649
  H        0.427      -1.471     289.436
  H       -8.154      -2.941     296.516
  H       -8.202      -2.070     295.002
  H       -8.490      -1.227     296.505

 3  4  5  6  7  8  9  10  11  12  22  25  29  30  31  32 0
 6-311+G(2d,p)
 ****
 33  36  37 0
 6-311+G(2d,p)
 ****
 1  2  13  14  15  16  17  18  19  20  21  23  24  26 0
 3-21G
 ****
 27  28  34  35  38  39  40  41  42  43  44  45  46  47  48 0
 3-21G
 ****


