%nproc=1
%NoSave
%Mem=1900MB
#P OB98/GEN NMR

erre ene a

0 1
  C      -84.573     -86.712     729.214
  O      -84.527     -87.639     728.143
  H      -85.340     -85.967     728.995
  H      -83.609     -86.202     729.309
  H      -84.826     -87.215     730.152
  P      -83.582     -88.931     728.281
  C      -85.278     -90.187     726.795
  O      -83.910     -89.879     727.037
  C      -85.439     -90.776     725.394
  O      -84.562     -91.913     725.223
  C      -86.841     -91.289     725.107
  O      -87.730     -90.230     724.840
  C      -86.570     -92.203     723.923
  O      -86.470     -91.451     722.699
  C      -85.210     -92.818     724.305
  N      -85.331     -94.165     724.882
  C      -85.073     -95.224     724.021
  O      -84.784     -95.085     722.834
  N      -85.179     -96.475     724.579
  C      -85.621     -96.757     725.841
  O      -85.783     -97.896     726.261
  C      -85.908     -95.590     726.692
  C      -85.753     -94.366     726.183
  O      -83.599     -89.606     729.613
  O      -82.122     -88.369     727.930
  H      -87.375     -91.131     722.504
  H      -81.603     -88.281     728.749
  H      -85.008     -97.261     723.973
  H      -86.248     -95.773     727.698
  H      -85.952     -93.495     726.792
  H      -84.562     -92.890     723.421
  H      -87.368     -92.943     723.779
  H      -87.200     -91.899     725.945
  H      -85.147     -90.005     724.665
  H      -85.867     -89.269     726.878
  H      -85.622     -90.898     727.560
  P      -89.204     -90.231     725.491
  C      -89.158     -87.683     725.797
  O      -89.850     -88.782     725.236
  O      -89.275     -90.723     726.898
  O      -90.046     -91.184     724.509
  H      -90.385     -91.945     725.013
  H      -89.678     -86.777     725.564
  H      -88.168     -87.641     725.393
  H      -89.104     -87.800     726.859

 6  7  8  9  10  11  12  13  14  15  16  26  31  32  33  34  35 0
 6-311+G(2d,p)
 ****
 36  37 0
 6-311+G(2d,p)
 ****
 1  2  3  4  5  17  18  19  20  21  22  23  24  25 0
 3-21G
 ****
 27  28  29  30  38  39  40  41  42  43  44  45 0
 3-21G
 ****


