%nproc=1
%NoSave
%Mem=1900MB
#P OB98/GEN NMR

erre ene a

0 1
  C      583.112     656.111      56.830
  O      581.977     655.320      56.489
  P      580.791     655.192      57.585
  C      580.161     653.007      56.307
  O      580.373     653.641      57.576
  C      580.220     651.492      56.448
  O      581.573     651.050      56.590
  C      579.473     650.940      57.665
  O      578.079     650.822      57.425
  C      580.105     649.565      57.789
  O      579.530     648.661      56.819
  C      581.575     649.849      57.421
  N      585.375     647.897      60.223
  C      584.706     647.409      59.153
  N      583.688     647.995      58.476
  C      583.369     649.182      59.011
  C      583.942     649.787      60.120
  C      585.018     649.104      60.734
  N      585.721     649.608      61.802
  N      583.354     651.006      60.385
  C      582.440     651.132      59.435
  N      582.424     650.058      58.581
  O      579.563     655.914      56.867
  O      581.104     655.782      58.910
  H      580.054     647.841      56.869
  H      578.911     656.224      57.540
  H      585.004     646.432      58.801
  H      581.765     651.982      59.331
  H      582.023     649.052      56.824
  H      579.964     649.115      58.772
  H      579.698     651.537      58.563
  H      579.813     651.059      55.512
  H      580.940     653.324      55.599
  H      586.578     649.149      62.063
  H      585.582     650.583      62.049
  H      579.189     653.323      55.909
  P      577.113     650.944      58.710
  C      575.178     651.352      57.032
  O      575.644     650.641      58.174
  O      577.103     652.524      59.014
  O      577.568     650.140      59.885
  H      576.918     652.690      59.961
  H      574.307     650.815      56.612
  H      575.944     651.402      56.257
  H      574.868     652.343      57.310
  H      583.808     656.105      56.017
  H      583.579     655.706      57.703
  H      582.801     657.116      57.025

 3  4  5  6  7  8  9  10  11  12  22  25  29  30  31  32 0
 6-311+G(2d,p)
 ****
 33  36  37 0
 6-311+G(2d,p)
 ****
 1  2  13  14  15  16  17  18  19  20  21  23  24  26 0
 3-21G
 ****
 27  28  34  35  38  39  40  41  42  43  44  45  46  47  48 0
 3-21G
 ****


