%nproc=1
%NoSave
%Mem=1900MB
#P OB98/GEN NMR

erre ene a

0 1
  C      -41.784    -637.554    -638.037
  O      -42.961    -637.981    -637.383
  P      -42.896    -638.725    -635.967
  C      -42.665    -636.916    -634.162
  O      -41.978    -637.849    -634.985
  C      -42.311    -637.114    -632.693
  O      -42.624    -638.476    -632.299
  C      -40.835    -636.856    -632.355
  O      -40.798    -636.213    -631.075
  C      -40.250    -638.250    -632.270
  O      -39.061    -638.291    -631.504
  C      -41.441    -639.018    -631.682
  N      -41.340    -640.452    -631.900
  C      -40.217    -641.095    -631.388
  O      -39.295    -640.441    -630.887
  N      -40.150    -642.465    -631.459
  C      -41.038    -643.110    -632.163
  N      -40.971    -644.464    -632.148
  C      -42.100    -642.435    -632.927
  C      -42.220    -641.124    -632.718
  O      -42.533    -640.170    -636.030
  O      -44.361    -638.527    -635.356
  H      -44.724    -639.404    -635.099
  H      -39.276    -638.070    -630.569
  H      -42.735    -643.000    -633.589
  H      -42.988    -640.544    -633.222
  H      -41.521    -638.835    -630.598
  H      -40.021    -638.612    -633.280
  H      -40.342    -636.214    -633.093
  H      -42.954    -636.452    -632.091
  H      -40.257    -644.898    -631.581
  H      -43.736    -637.070    -634.299
  H      -41.778    -645.048    -632.385
  H      -42.430    -635.893    -634.482
  P      -39.778    -634.988    -630.867
  C      -41.296    -632.975    -631.479
  O      -40.219    -633.805    -631.851
  O      -38.454    -635.550    -631.582
  O      -39.467    -634.618    -629.456
  H      -37.670    -635.109    -631.198
  H      -41.497    -632.280    -632.292
  H      -41.048    -632.408    -630.584
  H      -42.194    -633.577    -631.307
  H      -42.041    -637.083    -638.962
  H      -41.156    -638.399    -638.229
  H      -41.263    -636.857    -637.414

 3  4  5  6  7  8  9  10  11  12  13  24  27  28  29  30  32 0
 6-311+G(2d,p)
 ****
 34  35 0
 6-311+G(2d,p)
 ****
 1  2  14  15  16  17  18  19  20  21  22  23  25  26 0
 3-21G
 ****
 31  33  36  37  38  39  40  41  42  43  44  45  46 0
 3-21G
 ****


