%nproc=1
%NoSave
%Mem=1900MB
#P OB98/GEN NMR

erre ene a

0 1
  C      620.341      -0.113     525.870
  O      620.993      -0.758     524.801
  H      619.263      -0.295     525.785
  H      620.513       0.964     525.827
  H      620.681      -0.507     526.831
  P      622.595      -0.787     524.782
  C      623.123       0.335     522.523
  O      623.078       0.485     523.937
  C      624.353       1.059     521.961
  O      624.247       2.473     522.226
  C      625.663       0.616     522.587
  O      626.077      -0.645     522.096
  C      626.565       1.778     522.209
  O      627.048       1.646     520.870
  C      625.598       2.981     522.328
  N      625.795       3.726     523.569
  C      626.422       4.964     523.453
  O      626.794       5.445     522.383
  N      626.664       5.617     524.630
  C      626.473       5.106     525.881
  O      626.938       5.619     526.893
  C      625.753       3.826     525.940
  C      625.457       3.202     524.795
  O      623.214      -2.084     524.378
  O      622.995      -0.390     526.283
  H      623.247      -1.197     526.774
  H      627.544       2.463     520.677
  H      627.161       6.501     524.552
  H      625.523       3.419     526.919
  H      624.958       2.235     524.816
  H      625.742       3.669     521.479
  H      627.425       1.848     522.873
  H      625.563       0.585     523.676
  H      624.365       0.910     520.869
  H      622.217       0.773     522.094
  H      623.155      -0.731     522.274
  P      626.995      -1.607     523.000
  C      629.317      -0.539     522.720
  O      628.206      -0.728     523.587
  O      627.405      -2.885     522.348
  O      626.100      -1.881     524.297
  H      626.074      -2.838     524.467
  H      630.057       0.057     523.213
  H      628.994      -0.042     521.829
  H      629.737      -1.490     522.465

 6  7  8  9  10  11  12  13  14  15  16  27  31  32  33  34  35 0
 6-311+G(2d,p)
 ****
 36  37 0
 6-311+G(2d,p)
 ****
 1  2  3  4  5  17  18  19  20  21  22  23  24  25 0
 3-21G
 ****
 26  28  29  30  38  39  40  41  42  43  44  45 0
 3-21G
 ****


