%nproc=1
%NoSave
%Mem=1900MB
#P OB98/GEN NMR

erre ene a

0 1
  C       15.925      69.686     -18.418
  O       16.964      68.938     -17.804
  P       17.687      69.578     -16.520
  C       19.469      71.448     -16.170
  O       18.812      70.575     -17.083
  C       20.816      71.883     -16.732
  O       21.779      70.811     -16.646
  C       20.782      72.271     -18.205
  O       20.312      73.598     -18.403
  C       22.257      72.174     -18.566
  O       22.951      73.358     -18.130
  C       22.708      70.957     -17.747
  N       25.645      67.226     -19.507
  C       25.923      68.208     -18.575
  N       27.186      68.235     -18.090
  N       25.047      69.082     -18.156
  C       23.830      68.941     -18.735
  C       23.431      68.010     -19.667
  C       24.414      67.053     -20.131
  O       24.242      66.194     -20.990
  N       22.116      68.176     -20.008
  C       21.717      69.206     -19.289
  N       22.731      69.733     -18.532
  O       18.539      68.359     -15.931
  O       16.761      70.155     -15.505
  H       22.578      74.106     -18.641
  H       18.803      68.548     -15.007
  H       26.356      66.579     -19.803
  H       20.710      69.614     -19.295
  H       23.705      71.102     -17.316
  H       22.425      72.084     -19.644
  H       27.923      67.627     -18.422
  H       20.212      71.543     -18.797
  H       27.439      68.982     -17.459
  H       21.184      72.717     -16.120
  H       19.616      70.927     -15.220
  H       18.831      72.320     -15.987
  P       19.366      73.844     -19.679
  C       19.613      73.246     -22.196
  O       20.255      73.437     -20.949
  O       19.282      75.440     -19.757
  O       18.019      73.208     -19.585
  H       18.453      75.715     -20.197
  H       20.372      73.241     -22.984
  H       18.901      74.048     -22.403
  H       19.096      72.283     -22.203
  H       15.539      69.141     -19.254
  H       16.312      70.626     -18.753
  H       15.141      69.855     -17.710

 3  4  5  6  7  8  9  10  11  12  23  26  30  31 0
 6-311+G(2d,p)
 ****
 33  35  36  37  38 0
 6-311+G(2d,p)
 ****
 1  2  13  14  15  16  17  18  19  20  21  22  24  25 0
 3-21G
 ****
 27  28  29  32  34  39  40  41  42  43  44  45  46  47  48  49 0
 3-21G
 ****


