%nproc=1
%NoSave
%Mem=1900MB
#P OB98/GEN NMR

erre ene a

0 1
  C      174.520      35.268     141.134
  O      174.631      36.606     141.574
  H      174.835      34.603     141.943
  H      175.169      35.101     140.270
  H      173.484      35.037     140.871
  P      174.173      37.745     140.542
  C      172.976      39.091     142.417
  O      173.977      39.082     141.406
  C      172.776      40.513     142.933
  O      173.961      40.937     143.644
  C      172.560      41.551     141.838
  O      171.230      41.541     141.353
  C      172.929      42.834     142.571
  O      171.830      43.335     143.342
  C      174.055      42.373     143.506
  N      176.933      46.272     141.930
  C      175.681      46.219     142.435
  N      174.990      45.136     142.850
  C      175.730      44.023     142.711
  C      177.014      43.921     142.206
  C      177.629      45.118     141.804
  N      178.889      45.168     141.257
  N      177.420      42.601     142.179
  C      176.403      41.921     142.666
  N      175.364      42.740     143.006
  O      172.676      37.310     140.171
  O      175.031      37.888     139.330
  H      171.141      43.604     142.703
  H      172.683      36.782     139.350
  H      175.165      47.173     142.511
  H      176.369      40.845     142.785
  H      173.960      42.800     144.511
  H      173.221      43.620     141.873
  H      173.274      41.393     141.021
  H      171.938      40.513     143.640
  H      173.294      38.448     143.246
  H      172.045      38.697     141.997
  H      179.258      46.059     140.968
  H      179.373      44.301     141.061
  P      170.985      41.799     139.791
  C      169.310      39.846     139.412
  O      169.521      41.249     139.432
  O      171.968      40.751     139.087
  O      171.244      43.198     139.343
  H      172.782      41.197     138.789
  H      168.291      39.642     139.158
  H      169.525      39.439     140.378
  H      169.955      39.399     138.685

 6  7  8  9  10  11  12  13  14  15  25  28  32  33  34  35 0
 6-311+G(2d,p)
 ****
 36  37  40 0
 6-311+G(2d,p)
 ****
 1  2  3  4  5  16  17  18  19  20  21  22  23  24 0
 3-21G
 ****
 26  27  29  30  31  38  39 41  42  43  44  45  46  47  48 0
 3-21G
 ****


