%nproc=1
%NoSave
%Mem=1900MB
#P OB98/GEN NMR

erre ene a

0 1
  C      -55.263      53.042    -173.536
  O      -54.785      53.154    -172.205
  P      -55.509      52.380    -170.997
  C      -53.415      51.383    -169.858
  O      -54.553      51.136    -170.673
  C      -52.370      50.294    -170.079
  O      -51.992      50.262    -171.471
  C      -51.075      50.493    -169.303
  O      -51.240      50.148    -167.936
  C      -50.124      49.602    -170.095
  O      -50.302      48.226    -169.723
  C      -50.618      49.822    -171.542
  N      -49.796      50.774    -172.281
  C      -49.249      50.323    -173.486
  O      -49.465      49.182    -173.895
  N      -48.490      51.194    -174.231
  C      -48.275      52.398    -173.798
  N      -47.574      53.236    -174.609
  C      -48.785      52.894    -172.509
  C      -49.535      52.041    -171.812
  O      -56.934      52.022    -171.249
  O      -55.293      53.325    -169.729
  H      -51.252      48.026    -169.838
  H      -56.003      54.004    -169.618
  H      -48.569      53.904    -172.184
  H      -49.963      52.337    -170.863
  H      -50.629      48.869    -172.084
  H      -49.068      49.855    -169.952
  H      -50.745      51.536    -169.372
  H      -52.823      49.326    -169.824
  H      -47.396      52.911    -175.553
  H      -53.728      51.372    -168.808
  H      -47.610      54.240    -174.488
  H      -53.010      52.372    -170.094
  P      -51.208      51.339    -166.863
  C      -53.172      50.128    -165.680
  O      -52.660      51.349    -166.176
  O      -51.187      52.655    -167.775
  O      -50.054      51.287    -165.917
  H      -50.282      53.016    -167.825
  H      -54.035      50.345    -165.047
  H      -52.420      49.604    -165.082
  H      -53.497      49.494    -166.511
  H      -54.648      53.629    -174.186
  H      -56.272      53.396    -173.584
  H      -55.229      52.017    -173.842

 3  4  5  6  7  8  9  10  11  12  13  23  27  28  29  30  32 0
 6-311+G(2d,p)
 ****
 34  35 0
 6-311+G(2d,p)
 ****
 1  2  14  15  16  17  18  19  20  21  22  24  25  26 0
 3-21G
 ****
 31  33  36  37  38  39  40  41  42  43  44  45  46 0
 3-21G
 ****


