%nproc=1
%NoSave
%Mem=1900MB
#P OB98/GEN NMR

erre ene a

0 1
  C     -162.787     261.882     108.467
  O     -161.967     263.018     108.246
  P     -161.176     263.606     109.521
  C     -161.929     264.753     111.746
  O     -162.277     264.326     110.439
  C     -162.353     266.213     111.937
  O     -161.568     267.081     111.096
  C     -163.810     266.489     111.592
  O     -164.656     266.125     112.669
  C     -163.777     267.988     111.316
  O     -163.814     268.738     112.541
  C     -162.421     268.151     110.609
  N     -161.987     270.876     106.369
  C     -162.011     271.288     107.694
  N     -161.855     272.613     107.917
  N     -162.177     270.471     108.702
  C     -162.335     269.180     108.328
  C     -162.344     268.655     107.055
  C     -162.108     269.560     105.950
  O     -161.984     269.236     104.773
  N     -162.557     267.301     107.070
  C     -162.644     267.006     108.354
  N     -162.493     268.106     109.158
  O     -160.336     264.813     108.898
  O     -160.319     262.618     110.248
  H     -164.569     268.439     113.083
  H     -159.415     264.538     108.725
  H     -161.844     271.547     105.635
  H     -162.789     266.010     108.747
  H     -161.931     269.100     110.872
  H     -164.639     268.317     110.718
  H     -161.750     273.300     107.187
  H     -164.096     265.949     110.679
  H     -161.876     272.927     108.881
  H     -162.148     266.487     112.984
  H     -160.844     264.676     111.871
  H     -162.418     264.106     112.479
  P     -166.135     265.620     112.316
  C     -168.142     266.609     110.990
  O     -166.911     266.855     111.645
  O     -166.826     265.466     113.752
  O     -166.185     264.341     111.545
  H     -167.436     264.698     113.742
  H     -168.758     267.506     111.065
  H     -168.674     265.767     111.435
  H     -167.946     266.396     109.936
  H     -163.252     261.594     107.548
  H     -163.540     262.121     109.189
  H     -162.187     261.075     108.832

 3  4  5  6  7  8  9  10  11  12  23  26  30  31 0
 6-311+G(2d,p)
 ****
 33  35  36  37  38 0
 6-311+G(2d,p)
 ****
 1  2  13  14  15  16  17  18  19  20  21  22  24  25 0
 3-21G
 ****
 27  28  29  32  34  39  40  41  42  43  44  45  46  47  48  49 0
 3-21G
 ****


