%nproc=1
%NoSave
%Mem=1900MB
#P OB98/GEN NMR

erre ene a

0 1
  C      -54.720      67.111     -55.590
  O      -53.497      67.811     -55.830
  P      -52.631      67.310     -57.086
  C      -51.150      69.416     -57.373
  O      -51.202      68.041     -57.024
  C      -51.218      70.311     -56.131
  O      -50.158      69.978     -55.188
  C      -51.084      71.806     -56.441
  O      -51.910      72.505     -55.499
  C      -49.627      72.086     -56.123
  O      -49.390      73.478     -55.929
  C      -49.457      71.206     -54.887
  N      -45.494      72.857     -52.231
  C      -46.734      73.431     -52.430
  N      -46.972      74.593     -51.784
  N      -47.661      72.911     -53.192
  C      -47.297      71.727     -53.741
  C      -46.108      71.050     -53.609
  C      -45.080      71.653     -52.788
  O      -43.968      71.183     -52.576
  N      -46.127      69.859     -54.298
  C      -47.306      69.862     -54.896
  N      -48.071      70.941     -54.548
  O      -53.362      68.000     -58.331
  O      -52.582      65.824     -57.225
  H      -49.971      73.776     -55.196
  H      -53.941      67.357     -58.780
  H      -44.812      73.309     -51.647
  H      -47.663      69.099     -55.567
  H      -49.912      71.652     -53.992
  H      -48.987      71.738     -56.943
  H      -46.320      75.023     -51.144
  H      -51.356      72.085     -57.463
  H      -47.887      75.015     -51.880
  H      -52.173      70.124     -55.626
  H      -51.982      69.664     -58.036
  H      -50.237      69.604     -57.947
  P      -53.068      73.448     -56.075
  C      -54.918      72.831     -54.376
  O      -54.032      73.822     -54.854
  O      -53.951      72.440     -56.954
  O      -52.584      74.594     -56.902
  H      -54.252      72.893     -57.764
  H      -55.143      73.035     -53.326
  H      -54.490      71.829     -54.455
  H      -55.848      72.870     -54.950
  H      -55.208      67.529     -54.734
  H      -54.510      66.077     -55.411
  H      -55.357      67.203     -56.445

 3  4  5  6  7  8  9  10  11  12  23  26  30  31 0
 6-311+G(2d,p)
 ****
 33  35  36  37  38 0
 6-311+G(2d,p)
 ****
 1  2  13  14  15  16  17  18  19  20  21  22  24  25 0
 3-21G
 ****
 27  28  29  32  34  39  40  41  42  43  44  45  46  47  48  49 0
 3-21G
 ****


