%nproc=1
%NoSave
%Mem=1900MB
#P OB98/GEN NMR

erre ene a

0 1
  C     -227.821    -140.702      46.312
  O     -226.743    -140.804      47.218
  H     -228.751    -140.894      46.854
  H     -227.725    -141.447      45.517
  H     -227.870    -139.699      45.881
  P     -225.255    -140.568      46.666
  C     -223.905    -141.615      44.719
  O     -225.102    -141.644      45.479
  C     -223.900    -142.754      43.702
  O     -225.057    -142.694      42.842
  C     -222.712    -142.751      42.744
  O     -221.494    -143.162      43.340
  C     -223.210    -143.742      41.707
  O     -223.100    -145.080      42.224
  C     -224.691    -143.311      41.574
  N     -224.910    -142.379      40.469
  C     -224.854    -142.917      39.178
  O     -224.622    -144.112      39.003
  N     -225.027    -142.075      38.103
  C     -225.216    -140.809      38.300
  N     -225.376    -140.022      37.199
  C     -225.261    -140.197      39.641
  C     -225.106    -141.029      40.669
  O     -224.166    -140.582      47.688
  O     -225.345    -139.197      45.845
  H     -222.154    -145.312      42.206
  H     -224.445    -138.998      45.489
  H     -225.393    -139.130      39.751
  H     -225.121    -140.654      41.687
  H     -225.341    -144.183      41.438
  H     -222.648    -143.708      40.774
  H     -222.600    -141.772      42.263
  H     -223.962    -143.696      44.262
  H     -225.340    -140.470      36.293
  H     -223.059    -141.704      45.410
  H     -225.451    -139.017      37.256
  H     -223.825    -140.670      44.179
  P     -220.139    -142.597      42.689
  C     -219.190    -142.511      40.257
  O     -220.164    -143.031      41.148
  O     -219.012    -143.527      43.338
  O     -219.883    -141.141      42.916
  H     -218.583    -143.075      44.091
  H     -219.357    -142.905      39.276
  H     -218.214    -142.792      40.593
  H     -219.265    -141.444      40.230

 6  7  8  9  10  11  12  13  14  15  16  26  30  31  32  33  35 0
 6-311+G(2d,p)
 ****
 37  38 0
 6-311+G(2d,p)
 ****
 1  2  3  4  5  17  18  19  20  21  22  23  24  25 0
 3-21G
 ****
 27  28  29  34  36  39  40  41  42  43  44  45  46 0
 3-21G
 ****


