%nproc=1
%NoSave
%Mem=1900MB
#P OB98/GEN NMR

erre ene a

0 1
  C     -325.615    -141.495     196.416
  O     -325.923    -141.455     195.036
  H     -325.910    -140.546     196.868
  H     -324.541    -141.635     196.558
  H     -326.164    -142.305     196.904
  P     -325.585    -142.773     194.187
  C     -325.136    -141.335     192.068
  O     -325.865    -142.406     192.651
  C     -324.883    -141.626     190.592
  O     -324.001    -142.767     190.466
  C     -326.137    -141.996     189.813
  O     -326.912    -140.861     189.470
  C     -325.537    -142.707     188.611
  O     -325.116    -141.775     187.606
  C     -324.324    -143.421     189.217
  N     -323.928    -148.087     187.183
  C     -323.507    -146.877     186.755
  N     -323.643    -145.680     187.361
  C     -324.260    -145.818     188.548
  C     -324.740    -146.984     189.118
  C     -324.552    -148.167     188.383
  N     -325.001    -149.394     188.806
  N     -325.351    -146.718     190.327
  C     -325.236    -145.418     190.489
  N     -324.579    -144.831     189.443
  O     -326.782    -143.766     194.567
  O     -324.250    -143.379     194.463
  H     -324.566    -141.110     188.063
  H     -326.475    -144.402     195.241
  H     -323.007    -146.867     185.790
  H     -325.612    -144.856     191.336
  H     -323.437    -143.351     188.576
  H     -326.262    -143.381     188.156
  H     -326.738    -142.715     190.384
  H     -324.385    -140.757     190.142
  H     -324.175    -141.225     192.584
  H     -325.709    -140.409     192.185
  H     -324.892    -150.188     188.196
  H     -325.568    -149.446     189.643
  P     -328.342    -140.694     190.175
  C     -330.017    -140.747     188.179
  O     -329.306    -139.963     189.127
  O     -328.088    -139.583     191.299
  O     -328.899    -141.951     190.754
  H     -328.626    -139.779     192.088
  H     -330.610    -140.107     187.560
  H     -330.654    -141.436     188.692
  H     -329.322    -141.288     187.571

 6  7  8  9  10  11  12  13  14  15  25  28  32  33  34  35 0
 6-311+G(2d,p)
 ****
 36  37  40 0
 6-311+G(2d,p)
 ****
 1  2  3  4  5  16  17  18  19  20  21  22  23  24 0
 3-21G
 ****
 26  27  29  30  31  38  39 41  42  43  44  45  46  47  48 0
 3-21G
 ****


