%nproc=1
%NoSave
%Mem=1900MB
#P OB98/GEN NMR

erre ene a

0 1
  C     -490.529     596.657    -245.474
  O     -489.950     595.425    -245.104
  H     -489.984     597.466    -244.982
  H     -491.573     596.692    -245.149
  H     -490.472     596.805    -246.556
  P     -490.488     594.103    -245.836
  C     -490.586     592.002    -244.306
  O     -489.776     592.860    -245.115
  C     -489.804     591.547    -243.072
  O     -488.570     590.915    -243.508
  C     -489.435     592.689    -242.117
  O     -489.555     592.210    -240.772
  C     -487.977     592.966    -242.423
  O     -487.272     593.556    -241.326
  C     -487.474     591.568    -242.829
  N     -486.281     591.655    -243.669
  C     -485.539     590.482    -243.821
  O     -485.882     589.445    -243.248
  N     -484.389     590.527    -244.566
  C     -483.967     591.657    -245.053
  N     -482.801     591.641    -245.747
  C     -484.699     592.935    -244.853
  C     -485.834     592.858    -244.167
  O     -489.772     594.151    -247.267
  O     -491.975     593.994    -245.947
  H     -486.382     593.827    -241.649
  H     -490.332     593.744    -247.957
  H     -484.296     593.858    -245.248
  H     -486.439     593.742    -243.970
  H     -487.232     590.977    -241.936
  H     -487.909     593.650    -243.283
  H     -490.063     593.576    -242.244
  H     -490.396     590.775    -242.554
  H     -482.330     590.754    -245.855
  H     -490.864     591.127    -244.898
  H     -482.363     592.478    -246.131
  H     -491.495     592.537    -244.015
  P     -489.530     593.325    -239.610
  C     -487.720     592.268    -238.065
  O     -489.089     592.605    -238.249
  O     -491.080     593.658    -239.393
  O     -488.742     594.541    -239.963
  H     -491.279     594.556    -239.742
  H     -487.593     591.797    -237.112
  H     -487.125     593.157    -238.106
  H     -487.411     591.596    -238.838

 6  7  8  9  10  11  12  13  14  15  16  26  30  31  32  33  35 0
 6-311+G(2d,p)
 ****
 37  38 0
 6-311+G(2d,p)
 ****
 1  2  3  4  5  17  18  19  20  21  22  23  24  25 0
 3-21G
 ****
 27  28  29  34  36  39  40  41  42  43  44  45  46 0
 3-21G
 ****


