%nproc=1
%NoSave
%Mem=1900MB
#P OB98/GEN NMR

erre ene a

0 1
  C       -2.719      31.733     -50.762
  O       -2.559      30.530     -50.030
  P       -1.967      30.612     -48.542
  C        0.396      30.188     -49.607
  O       -0.400      30.916     -48.691
  C        1.859      30.628     -49.508
  O        1.945      32.048     -49.809
  C        2.496      30.412     -48.129
  O        3.870      30.067     -48.346
  C        2.385      31.784     -47.489
  O        3.316      31.974     -46.435
  C        2.616      32.686     -48.706
  N        2.119      34.050     -48.522
  C        2.969      34.978     -47.929
  O        4.102      34.714     -47.533
  N        2.456      36.240     -47.776
  C        1.189      36.638     -48.086
  O        0.777      37.778     -47.911
  C        0.321      35.602     -48.664
  C        0.820      34.382     -48.861
  O       -2.028      29.078     -48.100
  O       -2.706      31.555     -47.654
  H       -1.843      28.464     -48.830
  H        3.167      31.276     -45.771
  H        3.068      36.939     -47.382
  H       -0.698      35.876     -48.911
  H        0.200      33.601     -49.285
  H        3.684      32.716     -48.953
  H        1.377      31.915     -47.080
  H        2.000      29.623     -47.558
  H        2.430      30.098     -50.280
  H        0.038      30.369     -50.624
  H        0.296      29.117     -49.401
  P        4.600      29.137     -47.253
  C        5.649      31.274     -46.167
  O        4.951      30.062     -45.996
  O        6.027      28.939     -47.960
  O        3.911      27.844     -46.967
  H        6.412      29.772     -48.273
  H        5.495      31.898     -45.282
  H        5.291      31.821     -47.044
  H        6.718      31.072     -46.273
  H       -3.121      31.512     -51.728
  H       -1.769      32.212     -50.872
  H       -3.388      32.383     -50.238

 3  4  5  6  7  8  9  10  11  12  13  24  28  29  30  31  32 0
 6-311+G(2d,p)
 ****
 33  34 0
 6-311+G(2d,p)
 ****
 1  2  14  15  16  17  18  19  20  21  22  23  25  26  27 0
 3-21G
 ****
 35  36  37  38  39  40  41  42  43  44  45 0
 3-21G
 ****


