%nproc=1
%NoSave
%Mem=1900MB
#P OB98/GEN NMR

erre ene a

0 1
  C      267.004     994.865     335.117
  O      266.361     993.651     334.785
  P      266.852     992.877     333.468
  C      267.340     993.598     331.013
  O      266.656     993.868     332.229
  C      266.314     993.438     329.878
  O      265.411     994.561     329.836
  C      266.952     993.382     328.487
  O      267.496     992.098     328.229
  C      265.772     993.737     327.593
  O      264.950     992.588     327.332
  C      265.009     994.753     328.466
  N      265.201     996.139     328.027
  C      264.193     996.682     327.265
  O      263.174     996.052     326.941
  N      264.377     997.969     326.842
  C      265.495     998.725     327.055
  O      265.630     999.854     326.596
  C      266.558     998.089     327.844
  C      266.372     996.843     328.289
  O      265.753     991.750     333.244
  O      268.227     992.298     333.572
  H      265.461     992.016     326.716
  H      266.171     990.934     332.894
  H      263.647     998.396     326.300
  H      267.448     998.661     328.039
  H      267.145     996.338     328.864
  H      263.933     994.545     328.439
  H      266.091     994.130     326.632
  H      267.722     994.164     328.405
  H      265.728     992.529     330.059
  H      267.919     992.685     331.112
  H      268.019     994.429     330.795
  P      268.791     992.046     327.272
  C      269.221     992.859     324.814
  O      268.287     992.628     325.853
  O      268.945     990.468     327.044
  O      269.990     992.694     327.873
  H      268.073     990.014     327.045
  H      270.014     992.107     324.815
  H      269.649     993.854     324.933
  H      268.696     992.817     323.862
  H      266.574     995.263     336.012
  H      266.877     995.566     334.318
  H      268.047     994.685     335.272

 3  4  5  6  7  8  9  10  11  12  13  23  28  29  30  31  32 0
 6-311+G(2d,p)
 ****
 33  34 0
 6-311+G(2d,p)
 ****
 1  2  14  15  16  17  18  19  20  21  22  24  25  26 0
 3-21G
 ****
 27  35  36  37  38  39  40  41  42  43  44  45 0
 3-21G
 ****


