%nproc=1
%NoSave
%Mem=1900MB
#P OB98/GEN NMR

erre ene a

0 1
  C       85.510     -53.210     -21.497
  O       84.583     -52.465     -20.732
  H       85.230     -54.266     -21.459
  H       86.518     -53.098     -21.088
  H       85.493     -52.876     -22.538
  P       84.886     -50.894     -20.579
  C       85.569     -51.474     -18.127
  O       85.914     -50.830     -19.345
  C       86.387     -50.883     -16.983
  O       87.770     -51.286     -17.084
  C       86.408     -49.358     -16.955
  O       85.225     -48.799     -16.408
  C       87.613     -49.119     -16.063
  O       87.253     -49.370     -14.691
  C       88.592     -50.195     -16.588
  N       89.481     -49.699     -17.639
  C       90.833     -49.558     -17.304
  O       91.229     -49.833     -16.172
  N       91.703     -49.074     -18.254
  C       91.266     -48.768     -19.435
  N       92.169     -48.281     -20.330
  C       89.854     -48.917     -19.836
  C       89.028     -49.381     -18.901
  O       83.539     -50.311     -19.940
  O       85.338     -50.190     -21.814
  H       88.082     -49.371     -14.178
  H       83.670     -49.364     -19.690
  H       89.536     -48.638     -20.831
  H       87.975     -49.514     -19.123
  H       89.205     -50.596     -15.771
  H       87.988     -48.095     -16.115
  H       86.618     -48.939     -17.946
  H       85.996     -51.294     -16.040
  H       93.115     -48.132     -20.009
  H       85.779     -52.543     -18.230
  H       91.891     -47.850     -21.204
  H       84.503     -51.338     -17.919
  P       84.547     -47.576     -17.197
  C       85.383     -45.816     -15.480
  O       85.385     -46.257     -16.830
  O       83.168     -47.363     -16.415
  O       84.331     -47.809     -18.661
  H       82.442     -47.145     -17.030
  H       85.981     -44.933     -15.392
  H       85.787     -46.584     -14.853
  H       84.380     -45.599     -15.177

 6  7  8  9  10  11  12  13  14  15  16  26  30  31  32  33  35 0
 6-311+G(2d,p)
 ****
 37  38 0
 6-311+G(2d,p)
 ****
 1  2  3  4  5  17  18  19  20  21  22  23  24  25 0
 3-21G
 ****
 27  28  29  34  36  39  40  41  42  43  44  45  46 0
 3-21G
 ****


