%nproc=1
%NoSave
%Mem=1900MB
#P OB98/GEN NMR

erre ene a

0 1
  C     -552.804     165.238     484.511
  O     -551.458     165.138     484.053
  P     -550.983     164.297     482.784
  C     -551.417     166.368     481.222
  O     -551.582     164.978     481.470
  C     -551.641     166.696     479.738
  O     -550.644     165.980     478.947
  C     -553.020     166.251     479.238
  O     -553.651     167.198     478.388
  C     -552.740     164.875     478.661
  O     -553.734     164.431     477.752
  C     -551.338     165.049     478.088
  N     -550.416     160.835     475.358
  C     -551.378     161.804     475.171
  N     -552.222     161.632     474.130
  N     -551.515     162.849     475.943
  C     -550.662     162.865     476.991
  C     -549.676     161.955     477.292
  C     -549.496     160.828     476.398
  O     -548.647     159.949     476.511
  N     -549.000     162.306     478.430
  C     -549.591     163.417     478.830
  N     -550.601     163.800     477.979
  O     -551.115     162.816     482.898
  O     -549.409     164.634     482.672
  H     -553.688     164.989     476.956
  H     -548.982     163.833     482.311
  H     -550.338     160.063     474.718
  H     -549.317     163.991     479.711
  H     -551.354     165.472     477.080
  H     -552.726     164.161     479.494
  H     -552.249     160.793     473.572
  H     -553.722     166.152     480.076
  H     -553.053     162.220     474.132
  H     -551.484     167.771     479.587
  H     -550.387     166.602     481.507
  H     -552.077     166.953     481.863
  P     -554.617     168.405     478.778
  C     -553.273     170.368     477.818
  O     -553.729     169.724     478.994
  O     -555.121     168.069     480.256
  O     -555.786     168.594     477.864
  H     -556.094     167.961     480.256
  H     -552.484     171.070     478.092
  H     -554.096     170.924     477.364
  H     -552.875     169.642     477.106
  H     -552.840     165.863     485.379
  H     -553.170     164.263     484.758
  H     -553.412     165.663     483.740

 3  4  5  6  7  8  9  10  11  12  23  26  30  31 0
 6-311+G(2d,p)
 ****
 33  35  36  37  38 0
 6-311+G(2d,p)
 ****
 1  2  13  14  15  16  17  18  19  20  21  22  24  25 0
 3-21G
 ****
 27  28  29  32  34  39  40  41  42  43  44  45  46  47  48  49 0
 3-21G
 ****


