%nproc=1
%NoSave
%Mem=1900MB
#P OB98/GEN NMR

erre ene a

0 1
  C       58.461    -938.921     130.629
  O       59.636    -939.124     129.856
  P       59.742    -938.347     128.449
  C       60.383    -940.276     126.829
  O       59.353    -939.425     127.330
  C       59.795    -941.339     125.906
  O       58.929    -942.221     126.645
  C       58.940    -940.792     124.769
  O       59.731    -940.358     123.673
  C       58.144    -942.031     124.391
  O       58.947    -942.899     123.580
  C       57.876    -942.677     125.749
  N       52.889    -943.832     125.771
  C       53.925    -944.326     125.051
  N       55.229    -943.949     125.097
  C       55.404    -942.945     125.971
  C       54.435    -942.319     126.743
  C       53.125    -942.810     126.631
  N       52.079    -942.332     127.397
  N       55.000    -941.337     127.517
  C       56.289    -941.360     127.227
  N       56.583    -942.326     126.305
  O       61.323    -938.181     128.258
  O       59.022    -937.040     128.394
  H       59.159    -942.409     122.753
  H       61.506    -937.434     127.669
  H       53.681    -945.119     124.354
  H       57.035    -940.713     127.659
  H       57.935    -943.775     125.706
  H       57.240    -941.795     123.809
  H       58.255    -940.014     125.126
  H       60.623    -941.952     125.510
  H       60.880    -940.769     127.667
  H       51.217    -942.857     127.388
  H       52.297    -941.722     128.173
  H       61.109    -939.669     126.289
  P       59.030    -939.361     122.641
  C       59.225    -940.931     120.574
  O       58.379    -940.299     121.515
  O       60.268    -938.676     121.885
  O       58.113    -938.352     123.263
  H       60.018    -937.802     121.547
  H       58.681    -941.765     120.106
  H       60.115    -941.343     121.061
  H       59.517    -940.223     119.803
  H       58.524    -939.493     131.531
  H       57.606    -939.234     130.067
  H       58.368    -937.883     130.871

 3  4  5  6  7  8  9  10  11  12  22  25  29  30  31  32 0
 6-311+G(2d,p)
 ****
 33  36  37 0
 6-311+G(2d,p)
 ****
 1  2  13  14  15  16  17  18  19  20  21  23  24  26 0
 3-21G
 ****
 27  28  34  35  38  39  40  41  42  43  44  45  46  47  48 0
 3-21G
 ****


