%nproc=1
%NoSave
%Mem=1900MB
#P OB98/GEN NMR

erre ene a

0 1
  C       78.547    -267.059    -435.890
  O       78.253    -267.458    -437.235
  P       77.918    -266.306    -438.301
  C       78.484    -267.910    -440.297
  O       77.533    -267.065    -439.664
  C       77.832    -268.686    -441.454
  O       76.912    -269.689    -440.915
  C       77.040    -267.816    -442.443
  O       77.255    -268.378    -443.753
  C       75.608    -268.026    -441.999
  O       74.675    -267.734    -443.048
  C       75.651    -269.500    -441.570
  N       74.533    -269.874    -440.703
  C       73.479    -270.565    -441.293
  O       73.414    -270.798    -442.516
  N       72.464    -270.949    -440.457
  C       72.359    -270.641    -439.135
  O       71.424    -271.009    -438.426
  C       73.448    -269.817    -438.588
  C       74.451    -269.456    -439.378
  O       79.373    -265.705    -438.576
  O       76.908    -265.322    -437.799
  H       80.083    -266.377    -438.584
  H       74.838    -266.811    -443.354
  H       71.698    -271.479    -440.865
  H       73.366    -269.485    -437.557
  H       75.262    -268.828    -439.030
  H       75.629    -270.152    -442.453
  H       75.377    -267.384    -441.138
  H       77.350    -266.764    -442.426
  H       78.642    -269.228    -441.980
  H       78.892    -268.628    -439.574
  H       79.331    -267.306    -440.643
  P       77.991    -267.453    -444.849
  C       79.060    -269.497    -446.079
  O       78.217    -268.371    -446.137
  O       79.455    -267.341    -444.209
  O       77.344    -266.123    -445.071
  H       79.807    -268.202    -443.916
  H       78.908    -270.108    -446.964
  H       78.860    -270.112    -445.189
  H       80.112    -269.177    -446.056
  H       78.749    -267.926    -435.297
  H       77.708    -266.535    -435.482
  H       79.403    -266.418    -435.887

 3  4  5  6  7  8  9  10  11  12  13  24  28  29  30  31  32 0
 6-311+G(2d,p)
 ****
 33  34 0
 6-311+G(2d,p)
 ****
 1  2  14  15  16  17  18  19  20  21  22  23  25  26  27 0
 3-21G
 ****
 35  36  37  38  39  40  41  42  43  44  45 0
 3-21G
 ****


