%nproc=1
%NoSave
%Mem=1900MB
#P OB98/GEN NMR

erre ene a

0 1
  C      -62.146     251.895    -106.618
  O      -61.965     251.817    -108.038
  P      -63.289     252.007    -108.932
  C      -63.882     249.641    -109.829
  O      -64.141     250.646    -108.856
  C      -65.032     248.637    -109.932
  O      -66.213     249.311    -110.434
  C      -64.767     247.448    -110.863
  O      -65.368     246.276    -110.295
  C      -65.547     247.802    -112.114
  O      -65.867     246.649    -112.891
  C      -66.750     248.508    -111.497
  N      -71.341     249.812    -113.170
  C      -70.984     249.026    -112.094
  N      -71.997     248.494    -111.375
  N      -69.746     248.783    -111.750
  C      -68.840     249.408    -112.538
  C      -69.066     250.219    -113.628
  C      -70.443     250.444    -114.019
  O      -70.820     251.089    -114.997
  N      -67.889     250.667    -114.174
  C      -66.953     250.120    -113.425
  N      -67.478     249.344    -112.425
  O      -62.717     252.025    -110.428
  O      -64.048     253.254    -108.625
  H      -66.326     246.024    -112.300
  H      -62.989     252.845    -110.879
  H      -72.307     249.949    -113.402
  H      -65.888     250.234    -113.573
  H      -67.453     247.792    -111.059
  H      -64.952     248.480    -112.737
  H      -72.972     248.693    -111.545
  H      -63.706     247.260    -111.067
  H      -71.757     247.950    -110.552
  H      -65.266     248.281    -108.922
  H      -62.963     249.110    -109.565
  H      -63.718     250.129    -110.797
  P      -64.366     245.143    -109.762
  C      -63.561     244.029    -111.973
  O      -63.283     244.935    -110.924
  O      -65.248     243.808    -109.821
  O      -63.821     245.404    -108.396
  H      -64.932     243.165    -109.159
  H      -64.608     243.704    -111.967
  H      -62.921     243.151    -111.865
  H      -63.348     244.512    -112.925
  H      -61.204     251.755    -106.130
  H      -62.828     251.133    -106.303
  H      -62.541     252.856    -106.361

 3  4  5  6  7  8  9  10  11  12  23  26  30  31  33  0
 6-311+G(2d,p)
 ****
 35  36  37  38 0
 6-311+G(2d,p)
 ****
 1  2  13  14  15  16  17  18  19  20  21  22  24  25  27  28  29 0
 3-21G
 ****
 32  34  39  40  41  42  43  44  45  46  47  48  49 0
 3-21G
 ****


