%nproc=1
%NoSave
%Mem=1900MB
#P OB98/GEN NMR

erre ene a

0 1
  C      334.785     159.433    -399.059
  O      335.071     159.020    -400.397
  P      333.900     159.023    -401.489
  C      333.798     159.544    -404.022
  O      334.543     158.960    -402.957
  C      334.619     159.508    -405.316
  O      335.837     160.282    -405.195
  C      335.088     158.106    -405.683
  O      334.096     157.190    -406.098
  C      336.225     158.383    -406.648
  O      335.745     158.623    -407.971
  C      336.832     159.678    -406.050
  N      338.079     159.429    -405.318
  C      339.009     158.623    -405.965
  O      338.808     158.101    -407.060
  N      340.180     158.405    -405.288
  C      340.484     158.873    -404.047
  O      341.538     158.628    -403.474
  C      339.449     159.700    -403.401
  C      338.312     159.936    -404.061
  O      332.842     160.058    -401.300
  O      333.269     157.550    -401.333
  H      335.205     159.432    -407.946
  H      332.297     157.635    -401.397
  H      340.868     157.831    -405.745
  H      339.654     160.081    -402.414
  H      337.537     160.542    -403.602
  H      337.048     160.403    -406.847
  H      336.922     157.541    -406.710
  H      335.540     157.660    -404.785
  H      334.027     159.950    -406.117
  H      333.536     160.576    -403.770
  H      332.853     159.005    -404.133
  P      333.423     156.119    -405.113
  C      331.034     155.175    -404.746
  O      331.928     155.838    -405.617
  O      333.623     156.309    -403.648
  O      334.170     154.769    -405.562
  H      334.265     154.190    -404.777
  H      330.073     155.057    -405.262
  H      330.872     155.764    -403.839
  H      331.413     154.187    -404.490
  H      335.675     159.369    -398.468
  H      334.034     158.796    -398.642
  H      334.433     160.443    -399.065

 3  4  5  6  7  8  9  10  11  12  13  23  28  29  30  31  32 0
 6-311+G(2d,p)
 ****
 33  34 0
 6-311+G(2d,p)
 ****
 1  2  14  15  16  17  18  19  20  21  22  24  25  26  27 0
 3-21G
 ****
 35  36  37  38  39  40  41  42  43  44  45 0
 3-21G
 ****


