%nproc=1
%NoSave
%Mem=1900MB
#P OB98/GEN NMR

erre ene a

0 1
  C       57.476     -65.001      44.778
  O       57.858     -66.218      45.397
  P       57.896     -67.585      44.559
  C       55.387     -67.928      45.005
  O       56.405     -67.829      44.016
  C       54.009     -67.700      44.386
  O       54.045     -66.481      43.605
  C       53.567     -68.826      43.458
  O       52.154     -69.007      43.589
  C       53.852     -68.297      42.062
  O       52.995     -68.914      41.086
  C       53.634     -66.794      42.260
  N       53.734     -64.524      37.654
  C       52.770     -65.226      38.288
  N       52.820     -65.824      39.499
  C       54.002     -65.589      40.091
  C       55.080     -64.886      39.572
  C       54.916     -64.339      38.287
  N       55.897     -63.611      37.648
  N       56.138     -64.884      40.462
  C       55.696     -65.553      41.504
  N       54.409     -65.990      41.334
  O       58.493     -68.747      45.274
  O       58.709     -67.220      43.233
  H       53.294     -68.605      40.206
  H       59.284     -67.965      42.971
  H       51.832     -65.328      37.748
  H       56.268     -65.758      42.397
  H       52.576     -66.522      42.155
  H       54.890     -68.521      41.789
  H       54.085     -69.770      43.657
  H       53.282     -67.553      45.194
  H       55.570     -67.162      45.766
  H       55.647     -63.155      36.785
  H       56.706     -63.327      38.185
  H       55.439     -68.911      45.484
  P       51.626     -70.525      43.477
  C       50.665     -70.100      41.095
  O       51.566     -70.820      41.905
  O       50.373     -70.740      44.262
  O       52.899     -71.337      44.013
  H       53.730     -70.828      43.888
  H       50.745     -70.467      40.069
  H       50.918     -69.036      41.102
  H       49.638     -70.242      41.444
  H       57.513     -64.209      45.496
  H       56.480     -65.091      44.398
  H       58.147     -64.785      43.973

 3  4  5  6  7  8  9  10  11  12  22  25  29  30  31  32 0
 6-311+G(2d,p)
 ****
 33  36  37 0
 6-311+G(2d,p)
 ****
 1  2  13  14  15  16  17  18  19  20  21  23  24  26 0
 3-21G
 ****
 27  28  34  35  38  39  40  41  42  43  44  45  46  47  48 0
 3-21G
 ****


