%nproc=1
%NoSave
%Mem=1900MB
#P OB98/GEN NMR

erre ene a

0 1
  C      121.760      48.951     -73.738
  O      121.754      48.641     -72.359
  H      121.065      49.776     -73.915
  H      121.443      48.091     -74.334
  H      122.762      49.267     -74.047
  P      122.497      47.299     -71.883
  C      123.889      48.567     -70.114
  O      123.918      47.778     -71.302
  C      125.299      49.018     -69.720
  O      125.897      49.771     -70.795
  C      125.332      49.948     -68.517
  O      124.994      49.324     -67.296
  C      126.687      50.628     -68.665
  O      127.759      49.887     -68.089
  C      126.852      50.675     -70.204
  N      126.717      52.031     -70.727
  C      127.868      52.809     -70.702
  O      128.947      52.414     -70.255
  N      127.739      54.085     -71.177
  C      126.580      54.660     -71.613
  O      126.517      55.826     -71.989
  C      125.388      53.797     -71.592
  C      125.507      52.539     -71.156
  O      122.598      46.211     -72.910
  O      121.696      46.867     -70.566
  H      127.635      49.911     -67.120
  H      121.881      45.927     -70.330
  H      128.565      54.661     -71.177
  H      124.450      54.219     -71.930
  H      124.642      51.881     -71.129
  H      127.846      50.306     -70.490
  H      126.692      51.615     -68.197
  H      124.579      50.730     -68.673
  H      125.913      48.126     -69.548
  H      123.475      47.945     -69.313
  H      123.237      49.433     -70.261
  P      123.773      49.796     -66.378
  C      122.342      47.665     -65.971
  O      122.503      48.867     -66.714
  O      123.568      51.270     -66.240
  O      124.230      49.234     -64.935
  H      123.913      49.866     -64.261
  H      121.461      47.156     -66.302
  H      122.249      47.898     -64.931
  H      123.195      47.036     -66.121

 6  7  8  9  10  11  12  13  14  15  16  26  31  32  33  34  35 0
 6-311+G(2d,p)
 ****
 36  37 0
 6-311+G(2d,p)
 ****
 1  2  3  4  5  17  18  19  20  21  22  23  24  25 0
 3-21G
 ****
 27  28  29  30  38  39  40  41  42  43  44  45 0
 3-21G
 ****


