%nproc=1
%NoSave
%Mem=1900MB
#P OB98/GEN NMR

erre ene a

0 1
  C       73.764      62.660     -43.232
  O       74.197      63.942     -42.763
  P       73.189      65.185     -42.647
  C       73.406      66.310     -44.945
  O       72.568      65.542     -44.088
  C       72.713      66.726     -46.251
  O       73.661      67.326     -47.175
  C       72.022      65.585     -47.009
  O       70.904      66.174     -47.675
  C       73.088      65.178     -48.012
  O       72.578      64.438     -49.112
  C       73.655      66.544     -48.384
  N       76.373      65.530     -52.603
  C       75.050      65.717     -52.413
  N       74.406      66.019     -51.268
  C       75.273      66.172     -50.255
  C       76.650      66.023     -50.301
  C       77.203      65.673     -51.545
  N       78.546      65.436     -51.737
  N       77.207      66.227     -49.053
  C       76.180      66.483     -48.268
  N       74.990      66.465     -48.947
  O       73.751      66.365     -41.922
  O       71.934      64.599     -41.842
  H       73.266      64.404     -49.801
  H       71.676      65.234     -41.147
  H       74.425      65.600     -53.293
  H       76.236      66.665     -47.203
  H       73.013      67.057     -49.110
  H       73.835      64.552     -47.509
  H       71.707      64.762     -46.364
  H       71.986      67.509     -46.002
  H       74.297      65.719     -45.181
  H       78.834      65.099     -52.642
  H       79.160      65.412     -50.937
  H       73.734      67.205     -44.404
  P       69.401      65.921     -47.183
  C       69.127      63.690     -48.404
  O       69.190      64.335     -47.145
  O       68.358      66.673     -47.941
  O       69.410      66.329     -45.634
  H       68.496      66.496     -45.336
  H       68.147      63.867     -48.858
  H       69.265      62.616     -48.261
  H       69.909      64.062     -49.073
  H       74.591      61.981     -43.230
  H       73.383      62.754     -44.227
  H       72.994      62.286     -42.589

 3  4  5  6  7  8  9  10  11  12  22  25  29  30  31  32 0
 6-311+G(2d,p)
 ****
 33  36  37 0
 6-311+G(2d,p)
 ****
 1  2  13  14  15  16  17  18  19  20  21  23  24  26 0
 3-21G
 ****
 27  28  34  35  38  39  40  41  42  43  44  45  46  47  48 0
 3-21G
 ****


