%nproc=1
%NoSave
%Mem=1900MB
#P OB98/GEN NMR

erre ene a

0 1
  C       11.243       6.476     464.119
  O       10.548       5.265     463.881
  H       12.305       6.249     464.226
  H       10.888       6.943     465.039
  H       11.116       7.164     463.277
  P        8.954       5.322     463.686
  C        8.458       3.751     465.695
  O        8.371       5.067     465.165
  C        7.952       3.721     467.129
  O        8.823       4.453     468.015
  C        6.580       4.348     467.340
  O        5.502       3.561     466.841
  C        6.563       4.460     468.851
  O        6.320       3.168     469.431
  C        8.007       4.941     469.122
  N        8.113       6.400     469.235
  C        7.597       6.972     470.405
  O        7.075       6.274     471.274
  N        7.651       8.344     470.541
  C        8.150       9.074     469.590
  N        8.172      10.422     469.780
  C        8.687       8.505     468.340
  C        8.637       7.181     468.227
  O        8.390       4.442     462.614
  O        8.633       6.882     463.475
  H        6.342       3.277     470.398
  H        7.659       6.969     463.340
  H        9.066       9.162     467.564
  H        9.008       6.692     467.326
  H        8.406       4.482     470.040
  H        5.786       5.136     469.226
  H        6.542       5.365     466.910
  H        7.966       2.669     467.463
  H        7.796      10.784     470.648
  H        9.505       3.432     465.639
  H        8.469      11.073     469.062
  H        7.854       3.062     465.093
  P        4.037       4.230     466.871
  C        3.265       2.509     468.682
  O        3.405       3.868     468.300
  O        3.210       3.326     465.829
  O        3.997       5.688     466.520
  H        3.165       3.764     464.959
  H        2.829       2.456     469.658
  H        4.227       2.041     468.695
  H        2.633       2.005     467.981

 6  7  8  9  10  11  12  13  14  15  16  26  30  31  32  33  35 0
 6-311+G(2d,p)
 ****
 37  38 0
 6-311+G(2d,p)
 ****
 1  2  3  4  5  17  18  19  20  21  22  23  24  25 0
 3-21G
 ****
 27  28  29  34  36  39  40  41  42  43  44  45  46 0
 3-21G
 ****


