%nproc=1
%NoSave
%Mem=1900MB
#P OB98/GEN NMR

erre ene a

0 1
  C      137.249    -338.389    -221.626
  O      136.211    -339.165    -222.246
  P      136.470    -340.116    -223.518
  C      137.054    -338.332    -225.290
  O      137.531    -339.414    -224.504
  C      138.204    -337.529    -225.916
  O      137.670    -336.497    -226.802
  C      139.123    -336.840    -224.899
  O      140.460    -336.948    -225.415
  C      138.618    -335.402    -224.949
  O      139.543    -334.449    -224.428
  C      138.347    -335.273    -226.452
  N      137.558    -334.103    -226.847
  C      138.241    -333.004    -227.377
  O      139.464    -332.986    -227.455
  N      137.501    -331.916    -227.799
  C      136.211    -331.930    -227.693
  N      135.537    -330.825    -228.142
  C      135.455    -333.063    -227.129
  C      136.178    -334.103    -226.736
  O      135.210    -340.542    -224.211
  O      137.256    -341.389    -222.953
  H      136.969    -342.186    -223.439
  H      139.711    -334.669    -223.500
  H      134.375    -333.037    -227.070
  H      135.701    -334.993    -226.336
  H      139.306    -335.259    -226.996
  H      137.701    -335.326    -224.355
  H      139.095    -337.288    -223.903
  H      138.784    -338.212    -226.558
  H      136.092    -330.073    -228.530
  H      136.470    -337.665    -224.645
  H      134.532    -330.736    -228.119
  H      136.383    -338.718    -226.066
  P      141.631    -337.514    -224.481
  C      142.415    -335.246    -223.449
  O      141.802    -336.501    -223.240
  O      142.942    -337.182    -225.349
  O      141.571    -338.976    -224.164
  H      143.644    -337.806    -225.112
  H      141.839    -334.477    -222.929
  H      142.491    -334.986    -224.512
  H      143.426    -335.279    -223.018
  H      136.841    -337.839    -220.804
  H      137.661    -337.708    -222.341
  H      138.019    -339.042    -221.271

 3  4  5  6  7  8  9  10  11  12  13  24  27  28  29  30  32 0
 6-311+G(2d,p)
 ****
 34  35 0
 6-311+G(2d,p)
 ****
 1  2  14  15  16  17  18  19  20  21  22  23  25  26 0
 3-21G
 ****
 31  33  36  37  38  39  40  41  42  43  44  45  46 0
 3-21G
 ****


