%nproc=1
%NoSave
%Mem=1900MB
#P OB98/GEN NMR

erre ene a

0 1
  C     -431.500    -928.457     360.039
  O     -430.786    -928.729     358.823
  P     -431.061    -930.119     358.059
  C     -431.730    -929.080     355.748
  O     -430.824    -929.895     356.484
  C     -431.082    -928.625     354.444
  O     -430.097    -927.604     354.687
  C     -430.326    -929.722     353.694
  O     -431.217    -930.598     353.010
  C     -429.448    -928.903     352.766
  O     -430.188    -928.496     351.586
  C     -429.110    -927.684     353.634
  N     -427.753    -927.726     354.170
  C     -426.767    -927.119     353.406
  O     -426.990    -926.623     352.289
  N     -425.503    -927.147     353.926
  C     -425.124    -927.763     355.086
  O     -423.965    -927.760     355.495
  C     -426.192    -928.459     355.810
  C     -427.440    -928.410     355.328
  O     -432.658    -930.240     358.140
  O     -430.408    -931.332     358.651
  H     -430.511    -929.320     351.170
  H     -432.920    -931.190     358.122
  H     -424.770    -926.685     353.400
  H     -425.933    -928.973     356.732
  H     -428.248    -928.928     355.851
  H     -429.231    -926.763     353.053
  H     -428.573    -929.453     352.420
  H     -429.696    -930.283     354.394
  H     -431.870    -928.193     353.804
  H     -431.988    -928.201     356.340
  H     -432.641    -929.656     355.544
  P     -430.581    -931.945     352.395
  C     -432.074    -933.609     353.749
  O     -431.738    -933.039     352.501
  O     -429.527    -932.330     353.545
  O     -429.968    -931.731     351.043
  H     -429.849    -932.082     354.428
  H     -431.960    -932.880     354.559
  H     -431.447    -934.477     353.938
  H     -433.120    -933.937     353.709
  H     -431.206    -927.501     360.419
  H     -431.274    -929.213     360.762
  H     -432.552    -928.455     359.842

 3  4  5  6  7  8  9  10  11  12  13  23  28  29  30  31  32 0
 6-311+G(2d,p)
 ****
 33  34 0
 6-311+G(2d,p)
 ****
 1  2  14  15  16  17  18  19  20  21  22  24  25  26 0
 3-21G
 ****
 27  35  36  37  38  39  40  41  42  43  44  45 0
 3-21G
 ****


