%nproc=1
%NoSave
%Mem=1900MB
#P OB98/GEN NMR

erre ene a

0 1
  C      132.026    -103.591     180.589
  O      133.385    -103.526     180.203
  H      131.596    -102.588     180.601
  H      131.484    -104.201     179.861
  H      131.929    -104.052     181.577
  P      134.397    -102.823     181.230
  C      134.085    -104.324     183.330
  O      134.899    -103.989     182.215
  C      134.227    -105.809     183.669
  O      133.596    -106.590     182.618
  C      135.684    -106.273     183.782
  O      135.787    -107.216     184.850
  C      135.939    -106.965     182.453
  O      136.980    -107.931     182.538
  C      134.564    -107.550     182.147
  N      135.613    -110.771     178.327
  C      135.835    -110.843     179.657
  N      135.518    -109.942     180.609
  C      134.862    -108.898     180.072
  C      134.564    -108.683     178.737
  C      134.977    -109.679     177.837
  N      134.786    -109.596     176.475
  N      133.912    -107.473     178.575
  C      133.821    -106.972     179.791
  N      134.384    -107.793     180.727
  O      133.404    -101.959     182.147
  O      135.466    -101.984     180.619
  H      137.022    -108.414     181.687
  H      133.164    -101.136     181.680
  H      136.342    -111.741     180.001
  H      133.371    -106.021     180.044
  H      134.387    -108.503     182.665
  H      136.223    -106.222     181.698
  H      136.379    -105.449     183.957
  H      133.673    -106.014     184.593
  H      133.040    -104.103     183.087
  H      135.165    -110.330     175.898
  H      134.370    -108.762     176.086
  H      134.387    -103.719     184.192
  P      136.718    -106.807     186.091
  C      134.900    -105.872     187.686
  O      135.848    -106.900     187.437
  O      136.934    -105.233     185.887
  O      138.022    -107.536     186.128
  H      137.884    -105.016     185.950
  H      134.399    -106.065     188.612
  H      134.184    -105.847     186.891
  H      135.403    -104.929     187.743

 6  7  8  9  10  11  12  13  14  15  25  28  32  33  34  35 0
 6-311+G(2d,p)
 ****
 36  39  40 0
 6-311+G(2d,p)
 ****
 1  2  3  4  5  16  17  18  19  20  21  22  23  24 0
 3-21G
 ****
 26  27  29  30  31  37  38  41  42  43  44  45  46  47 0
 3-21G
 ****
 48 0
 3-21G
 ****


