%nproc=1
%NoSave
%Mem=1900MB
#P OB98/GEN NMR

erre ene a

0 1
  C      -26.906     117.448     251.862
  O      -27.212     117.111     250.494
  P      -26.019     117.100     249.410
  C      -26.593     119.293     248.113
  O      -25.677     118.596     248.944
  C      -26.268     120.800     248.060
  O      -27.118     121.459     247.066
  C      -26.472     121.539     249.391
  O      -25.485     122.587     249.443
  C      -27.863     122.137     249.227
  O      -28.118     123.216     250.109
  C      -27.818     122.530     247.741
  N      -29.135     122.753     247.142
  C      -29.456     124.049     246.742
  O      -28.735     125.029     246.914
  N      -30.682     124.198     246.140
  C      -31.611     123.213     245.942
  O      -32.706     123.421     245.424
  C      -31.226     121.876     246.410
  C      -30.031     121.706     246.983
  O      -26.760     116.499     248.119
  O      -24.838     116.260     249.767
  H      -29.054     123.484     249.991
  H      -26.194     115.814     247.707
  H      -30.921     125.124     245.824
  H      -31.934     121.068     246.269
  H      -29.722     120.723     247.320
  H      -27.206     123.438     247.621
  H      -28.614     121.359     249.422
  H      -26.382     120.881     250.263
  H      -25.232     120.910     247.709
  H      -27.611     119.160     248.499
  H      -26.552     118.865     247.097
  P      -24.071     122.267     250.132
  C      -24.265     123.923     252.150
  O      -24.210     122.581     251.697
  O      -23.198     123.495     249.580
  O      -23.492     120.930     249.770
  H      -23.667     124.347     249.648
  H      -24.887     124.543     251.490
  H      -23.257     124.335     252.192
  H      -24.703     123.941     253.156
  H      -27.801     117.409     252.448
  H      -26.495     118.435     251.903
  H      -26.195     116.750     252.251

 3  4  5  6  7  8  9  10  11  12  13  23  28  29  30  31  32 0
 6-311+G(2d,p)
 ****
 33  34 0
 6-311+G(2d,p)
 ****
 1  2  14  15  16  17  18  19  20  21  22  24  25  26 0
 3-21G
 ****
 27  35  36  37  38  39  40  41  42  43  44  45 0
 3-21G
 ****


