%nproc=1
%NoSave
%Mem=1900MB
#P OB98/GEN NMR

erre ene a

0 1
  C      126.085    -304.811      -4.010
  O      125.616    -305.103      -2.709
  P      126.486    -306.018      -1.723
  C      127.882    -303.933      -1.166
  O      127.913    -305.314      -1.509
  C      128.506    -303.711       0.211
  O      127.570    -304.046       1.260
  C      129.729    -304.572       0.482
  O      130.863    -304.132      -0.242
  C      129.845    -304.448       1.997
  O      130.488    -303.216       2.359
  C      128.358    -304.422       2.419
  N      127.918    -305.692       2.973
  C      127.891    -305.776       4.371
  O      128.303    -304.846       5.058
  N      127.405    -306.924       4.947
  C      127.095    -307.940       4.202
  N      126.560    -309.025       4.822
  C      127.260    -307.947       2.731
  C      127.651    -306.792       2.190
  O      126.552    -307.466      -2.088
  O      125.782    -305.827      -0.294
  H      125.616    -306.711       0.093
  H      130.031    -302.508       1.868
  H      127.050    -308.838       2.163
  H      127.781    -306.695       1.114
  H      128.190    -303.634       3.161
  H      130.426    -305.259       2.439
  H      129.512    -305.617       0.220
  H      128.764    -302.646       0.302
  H      126.445    -308.979       5.825
  H      126.839    -303.597      -1.153
  H      125.997    -309.715       4.331
  H      128.420    -303.360      -1.929
  P      132.061    -305.185      -0.433
  C      131.093    -305.836      -2.743
  O      131.569    -306.285      -1.487
  O      132.077    -305.975       0.964
  O      133.390    -304.570      -0.721
  H      132.996    -306.191       1.207
  H      131.135    -306.674      -3.449
  H      131.699    -305.017      -3.133
  H      130.052    -305.514      -2.644
  H      125.373    -304.192      -4.515
  H      126.215    -305.722      -4.555
  H      127.022    -304.298      -3.945

 3  4  5  6  7  8  9  10  11  12  13  24  27  28  29  30  32 0
 6-311+G(2d,p)
 ****
 34  35 0
 6-311+G(2d,p)
 ****
 1  2  14  15  16  17  18  19  20  21  22  23  25  26 0
 3-21G
 ****
 31  33  36  37  38  39  40  41  42  43  44  45  46 0
 3-21G
 ****


