%nproc=1
%NoSave
%Mem=1900MB
#P OB98/GEN NMR

erre ene a

0 1
  C      135.251    -277.173     234.610
  O      136.595    -277.294     234.167
  P      137.755    -276.763     235.140
  C      137.688    -274.218     234.579
  O      138.372    -275.451     234.448
  C      138.505    -273.080     233.954
  O      137.710    -271.864     233.990
  C      139.833    -272.773     234.666
  O      140.752    -272.330     233.660
  C      139.470    -271.614     235.580
  O      140.610    -270.854     235.971
  C      138.474    -270.865     234.699
  N      138.078    -266.552     237.319
  C      139.188    -267.131     236.730
  N      140.344    -266.427     236.805
  N      139.172    -268.288     236.128
  C      137.943    -268.867     236.119
  C      136.778    -268.412     236.698
  C      136.804    -267.112     237.331
  O      135.832    -266.520     237.787
  N      135.759    -269.314     236.554
  C      136.282    -270.276     235.822
  N      137.590    -270.027     235.491
  O      138.902    -277.862     234.962
  O      137.363    -276.567     236.573
  H      140.289    -270.006     236.351
  H      138.840    -278.553     235.651
  H      138.149    -265.646     237.755
  H      135.770    -271.168     235.495
  H      138.968    -270.220     233.958
  H      138.988    -271.994     236.488
  H      140.423    -265.516     237.229
  H      140.243    -273.629     235.209
  H      141.168    -266.817     236.355
  H      138.685    -273.323     232.902
  H      137.553    -273.999     235.646
  H      136.700    -274.291     234.111
  P      142.278    -272.810     233.775
  C      143.510    -270.697     232.917
  O      143.114    -272.029     232.658
  O      142.219    -274.311     233.208
  O      142.843    -272.783     235.160
  H      142.887    -274.860     233.659
  H      144.370    -270.451     232.287
  H      143.790    -270.554     233.969
  H      142.687    -270.016     232.671
  H      134.593    -277.566     233.863
  H      135.023    -276.141     234.780
  H      135.125    -277.721     235.520

 3  4  5  6  7  8  9  10  11  12  23  26  30  31 0
 6-311+G(2d,p)
 ****
 33  35  36  37  38 0
 6-311+G(2d,p)
 ****
 1  2  13  14  15  16  17  18  19  20  21  22  24  25 0
 3-21G
 ****
 27  28  29  32  34  39  40  41  42  43  44  45  46  47  48  49 0
 3-21G
 ****


