%nproc=1
%NoSave
%Mem=1900MB
#P OB98/GEN NMR

erre ene a

0 1
  C     -170.647      95.059     160.789
  O     -169.328      94.884     160.312
  H     -170.855      94.287     161.532
  H     -171.360      94.954     159.967
  H     -170.765      96.039     161.260
  P     -168.696      96.006     159.359
  C     -168.558      97.520     161.441
  O     -168.944      97.418     160.076
  C     -168.228      98.973     161.780
  O     -167.783      99.075     163.149
  C     -167.107      99.567     160.934
  O     -167.570      99.892     159.638
  C     -166.714     100.762     161.792
  O     -167.623     101.855     161.595
  C     -166.853     100.177     163.219
  N     -165.577      99.751     163.793
  C     -165.374     100.055     165.139
  O     -166.187     100.679     165.817
  N     -164.187      99.626     165.671
  C     -163.175      99.017     164.988
  O     -162.105      98.702     165.503
  C     -163.431      98.754     163.565
  C     -164.602      99.127     163.042
  O     -169.110      95.951     157.924
  O     -167.117      95.791     159.523
  H     -167.316     102.583     162.171
  H     -166.772      95.291     158.761
  H     -164.016      99.846     166.639
  H     -162.651      98.279     162.989
  H     -164.811      98.947     161.992
  H     -167.299     100.923     163.891
  H     -165.717     101.137     161.558
  H     -166.260      98.877     160.887
  H     -169.147      99.563     161.680
  H     -167.671      96.897     161.604
  H     -169.374      97.152     162.069
  P     -166.538     100.224     158.461
  C     -167.109      98.240     156.946
  O     -166.118      98.833     157.777
  O     -165.391     101.097     158.847
  O     -167.441     100.921     157.340
  H     -167.264     101.884     157.322
  H     -166.733      97.324     156.541
  H     -167.352      98.910     156.148
  H     -167.987      98.041     157.524

 6  7  8  9  10  11  12  13  14  15  16  26  31  32  33  34  35 0
 6-311+G(2d,p)
 ****
 36  37 0
 6-311+G(2d,p)
 ****
 1  2  3  4  5  17  18  19  20  21  22  23  24  25 0
 3-21G
 ****
 27  28  29  30  38  39  40  41  42  43  44  45 0
 3-21G
 ****


