%nproc=1
%NoSave
%Mem=1900MB
#P OB98/GEN NMR

erre ene a

0 1
  C        5.483    -180.091     101.224
  O        6.112    -178.835     101.068
  H        5.957    -180.618     102.056
  H        5.606    -180.690     100.318
  H        4.419    -179.968     101.449
  P        5.506    -177.794     100.010
  C        7.099    -178.106      98.004
  O        5.816    -178.379      98.550
  C        7.267    -178.842      96.677
  O        7.233    -180.271      96.890
  C        6.164    -178.550      95.666
  O        6.344    -177.281      95.065
  C        6.319    -179.730      94.720
  O        7.389    -179.504      93.789
  C        6.671    -180.872      95.700
  N        5.521    -181.716      96.025
  C        5.005    -182.487      94.988
  O        5.446    -182.458      93.840
  N        3.934    -183.278      95.311
  C        3.275    -183.287      96.507
  O        2.261    -183.949      96.717
  C        3.849    -182.435      97.558
  C        4.928    -181.701      97.275
  O        5.890    -176.367     100.214
  O        3.922    -177.998     100.149
  H        7.366    -180.249      93.157
  H        3.541    -177.247     100.643
  H        3.537    -183.834      94.569
  H        3.363    -182.424      98.524
  H        5.362    -181.062      98.034
  H        7.454    -181.511      95.272
  H        5.418    -179.913      94.136
  H        5.183    -178.613      96.152
  H        8.253    -178.589      96.261
  H        7.863    -178.451      98.710
  H        7.206    -177.025      97.864
  P        5.071    -176.367      94.739
  C        4.645    -177.483      92.462
  O        4.114    -177.194      93.752
  O        5.381    -174.974      94.299
  O        4.246    -176.356      96.112
  H        4.172    -175.438      96.438
  H        3.924    -178.034      91.895
  H        5.537    -178.064      92.566
  H        4.872    -176.568      91.957

 6  7  8  9  10  11  12  13  14  15  16  26  31  32  33  34  35 0
 6-311+G(2d,p)
 ****
 36  37 0
 6-311+G(2d,p)
 ****
 1  2  3  4  5  17  18  19  20  21  22  23  24  25 0
 3-21G
 ****
 27  28  29  30  38  39  40  41  42  43  44  45 0
 3-21G
 ****


