%nproc=1
%NoSave
%Mem=1900MB
#P OB98/GEN NMR

erre ene a

0 1
  C     -359.402    -735.764    -892.690
  O     -359.416    -735.859    -894.100
  P     -358.041    -736.014    -894.930
  C     -355.772    -734.821    -895.090
  O     -357.017    -734.909    -894.380
  C     -355.203    -733.420    -894.970
  O     -354.960    -733.057    -893.590
  C     -353.863    -733.229    -895.670
  O     -353.995    -733.170    -897.080
  C     -353.393    -731.918    -895.070
  O     -354.009    -730.795    -895.710
  C     -353.896    -732.052    -893.610
  N     -352.852    -732.399    -892.670
  C     -351.921    -731.411    -892.350
  O     -351.996    -730.305    -892.910
  N     -350.963    -731.691    -891.400
  C     -350.843    -732.862    -890.890
  N     -349.927    -733.021    -889.930
  C     -351.701    -733.982    -891.330
  C     -352.666    -733.704    -892.190
  O     -358.192    -736.068    -896.410
  O     -357.429    -737.396    -894.340
  H     -357.150    -737.951    -895.110
  H     -354.015    -730.976    -896.680
  H     -351.502    -734.966    -890.940
  H     -353.371    -734.457    -892.530
  H     -354.385    -731.100    -893.280
  H     -352.328    -731.795    -895.150
  H     -353.183    -734.035    -895.370
  H     -355.945    -732.680    -895.390
  H     -349.370    -732.228    -889.670
  H     -355.953    -735.070    -896.120
  H     -349.946    -733.814    -889.280
  H     -355.069    -735.546    -894.660
  P     -352.825    -733.920    -897.930
  C     -350.292    -733.467    -898.320
  O     -351.513    -732.983    -897.810
  O     -353.276    -733.657    -899.460
  O     -352.631    -735.357    -897.660
  H     -353.061    -734.424    -900.000
  H     -349.604    -732.621    -898.430
  H     -350.451    -733.958    -899.280
  H     -349.831    -734.192    -897.590
  H     -360.405    -735.668    -892.329
  H     -358.833    -734.907    -892.396
  H     -358.958    -736.646    -892.278

 3  4  5  6  7  8  9  10  11  12  13  24  27  28  29  30  32 0
 6-311+G(2d,p)
 ****
 34  35 0
 6-311+G(2d,p)
 ****
 1  2  14  15  16  17  18  19  20  21  22  23  25  26 0
 3-21G
 ****
 31  33  36  37  38  39  40  41  42  43  44  45  46 0
 3-21G
 ****


