%nproc=1
%NoSave
%Mem=1900MB
#P OB98/GEN NMR

erre ene a

0 1
  C       57.962     216.572    -142.887
  O       57.414     217.766    -143.401
  H       57.142     215.890    -142.641
  H       58.530     216.775    -141.977
  H       58.606     216.089    -143.627
  P       58.406     218.875    -143.998
  C       57.042     220.711    -142.808
  O       58.329     220.144    -143.021
  C       56.882     221.101    -141.342
  O       56.912     219.918    -140.510
  C       57.998     221.994    -140.817
  O       57.857     223.326    -141.273
  C       57.834     221.805    -139.318
  O       56.796     222.645    -138.800
  C       57.430     220.316    -139.222
  N       58.554     219.469    -138.821
  C       59.015     219.636    -137.519
  O       58.522     220.430    -136.720
  N       60.111     218.891    -137.175
  C       60.854     218.128    -138.033
  O       61.960     217.682    -137.748
  C       60.286     217.940    -139.376
  C       59.185     218.619    -139.708
  O       58.236     219.180    -145.449
  O       59.862     218.278    -143.695
  H       60.227     217.891    -144.512
  H       56.550     222.264    -137.932
  H       60.476     219.038    -136.245
  H       60.807     217.284    -140.062
  H       58.766     218.524    -140.705
  H       56.618     220.186    -138.498
  H       58.755     222.043    -138.781
  H       58.971     221.590    -141.122
  H       55.904     221.582    -141.215
  H       56.282     219.967    -143.074
  H       56.926     221.585    -143.459
  P       58.927     223.946    -142.293
  C       59.766     225.541    -140.460
  O       60.129     224.573    -141.440
  O       58.360     224.851    -143.335
  O       59.607     222.662    -142.969
  H       59.596     222.775    -143.940
  H       60.645     225.886    -139.957
  H       59.100     225.097    -139.750
  H       59.280     226.367    -140.937

 6  7  8  9  10  11  12  13  14  15  16  27  31  32  33  34  35 0
 6-311+G(2d,p)
 ****
 36  37 0
 6-311+G(2d,p)
 ****
 1  2  3  4  5  17  18  19  20  21  22  23  24  25 0
 3-21G
 ****
 26  28  29  30  38  39  40  41  42  43  44  45 0
 3-21G
 ****


