%nproc=1
%NoSave
%Mem=1900MB
#P OB98/GEN NMR

erre ene a

0 1
  C      -49.459     204.174    -122.678
  O      -49.785     203.882    -124.023
  H      -49.011     203.287    -122.224
  H      -50.364     204.433    -122.124
  H      -48.742     204.999    -122.626
  P      -50.240     205.105    -124.952
  C      -49.224     205.769    -127.252
  O      -49.780     204.739    -126.447
  C      -48.162     205.188    -128.185
  O      -47.048     204.710    -127.377
  C      -48.654     204.005    -129.031
  O      -48.023     204.076    -130.315
  C      -48.120     202.799    -128.281
  O      -47.976     201.636    -129.084
  C      -46.784     203.348    -127.768
  N      -46.250     202.572    -126.649
  C      -45.934     201.240    -126.888
  O      -45.989     200.691    -127.987
  N      -45.534     200.521    -125.789
  C      -45.448     200.989    -124.511
  O      -45.105     200.289    -123.563
  C      -45.805     202.399    -124.320
  C      -46.186     203.117    -125.380
  O      -49.233     206.273    -124.529
  O      -51.671     205.510    -124.826
  H      -49.603     206.793    -123.790
  H      -47.456     201.890    -129.874
  H      -45.302     199.554    -125.945
  H      -45.759     202.802    -123.314
  H      -46.477     204.156    -125.271
  H      -46.048     203.377    -128.578
  H      -48.787     202.554    -127.446
  H      -49.741     203.964    -129.155
  H      -47.775     205.990    -128.822
  H      -48.759     206.522    -126.609
  H      -50.023     206.244    -127.833
  P      -48.823     204.824    -131.490
  C      -48.184     206.760    -133.138
  O      -47.754     205.789    -132.193
  O      -49.756     205.810    -130.647
  O      -49.546     203.882    -132.395
  H      -49.329     206.147    -129.842
  H      -47.338     207.307    -133.498
  H      -48.871     207.434    -132.670
  H      -48.667     206.271    -133.958

 6  7  8  9  10  11  12  13  14  15  16  27  31  32  33  34  35 0
 6-311+G(2d,p)
 ****
 36  37 0
 6-311+G(2d,p)
 ****
 1  2  3  4  5  17  18  19  20  21  22  23  24  25 0
 3-21G
 ****
 26  28  29  30  38  39  40  41  42  43  44  45 0
 3-21G
 ****


