%nproc=1
%NoSave
%Mem=1900MB
#P OB98/GEN NMR

erre ene a

0 1
  C     -298.720      77.455     238.306
  O     -297.664      77.236     239.218
  H     -299.511      78.017     238.810
  H     -299.131      76.503     237.962
  H     -298.363      78.036     237.452
  P     -296.440      76.335     238.709
  C     -295.173      78.470     237.943
  O     -295.670      77.186     237.590
  C     -293.646      78.434     237.980
  O     -293.205      77.555     239.042
  C     -293.007      77.889     236.712
  O     -292.958      78.847     235.667
  C     -291.626      77.518     237.222
  O     -290.740      78.645     237.222
  C     -291.916      77.037     238.655
  N     -291.854      75.581     238.762
  C     -290.632      75.003     238.424
  O     -289.654      75.654     238.060
  N     -290.583      73.638     238.481
  C     -291.625      72.813     238.785
  O     -291.527      71.592     238.763
  C     -292.896      73.478     239.115
  C     -292.953      74.812     239.085
  O     -297.161      75.175     237.876
  O     -295.568      75.789     239.791
  H     -297.137      74.343     238.382
  H     -290.534      78.827     236.283
  H     -289.707      73.200     238.243
  H     -293.744      72.852     239.359
  H     -293.881      75.326     239.313
  H     -291.185      77.460     239.356
  H     -291.173      76.751     236.598
  H     -293.524      76.977     236.388
  H     -293.279      79.444     238.195
  H     -295.544      78.751     238.932
  H     -295.529      79.203     237.213
  P     -292.741      78.310     234.170
  C     -295.235      77.473     234.074
  O     -293.852      77.176     233.948
  O     -291.368      77.505     234.343
  O     -292.713      79.400     233.155
  H     -291.251      77.183     235.254
  H     -295.808      76.589     233.889
  H     -295.504      78.227     233.364
  H     -295.435      77.827     235.064

 6  7  8  9  10  11  12  13  14  15  16  27  31  32  33  34  35 0
 6-311+G(2d,p)
 ****
 36  37 0
 6-311+G(2d,p)
 ****
 1  2  3  4  5  17  18  19  20  21  22  23  24  25 0
 3-21G
 ****
 26  28  29  30  38  39  40  41  42  43  44  45 0
 3-21G
 ****


