%nproc=1
%NoSave
%Mem=1900MB
#P OB98/GEN NMR

erre ene a

0 1
  C     -514.307     136.298    -128.403
  O     -515.198     137.136    -127.686
  P     -516.375     137.861    -128.487
  C     -516.964     140.397    -128.435
  O     -515.975     139.409    -128.655
  C     -516.497     141.753    -128.967
  O     -515.405     142.252    -128.137
  C     -515.991     141.720    -130.411
  O     -516.327     142.965    -131.026
  C     -514.484     141.631    -130.231
  O     -513.758     142.016    -131.390
  C     -514.307     142.551    -129.025
  N     -513.016     142.388    -128.363
  C     -512.076     143.397    -128.528
  O     -512.270     144.416    -129.195
  N     -510.852     143.180    -127.946
  C     -510.460     142.041    -127.310
  O     -509.312     141.862    -126.915
  C     -511.494     141.003    -127.161
  C     -512.704     141.218    -127.683
  O     -517.578     137.894    -127.435
  O     -516.770     137.189    -129.771
  H     -512.812     141.988    -131.164
  H     -518.212     137.180    -127.623
  H     -510.161     143.908    -128.043
  H     -511.221     140.095    -126.639
  H     -513.480     140.467    -127.609
  H     -514.424     143.597    -129.325
  H     -514.202     140.597    -129.989
  H     -516.394     140.887    -130.999
  H     -517.326     142.470    -128.870
  H     -517.154     140.479    -127.360
  H     -517.906     140.094    -128.913
  P     -515.900     143.194    -132.565
  C     -514.354     144.901    -133.800
  O     -514.846     144.398    -132.576
  O     -517.240     143.846    -133.152
  O     -515.492     141.933    -133.267
  H     -517.629     144.514    -132.557
  H     -515.123     144.864    -134.587
  H     -513.493     144.316    -134.109
  H     -514.048     145.941    -133.654
  H     -513.582     135.890    -127.730
  H     -513.811     136.869    -129.159
  H     -514.856     135.502    -128.860

 3  4  5  6  7  8  9  10  11  12  13  23  28  29  30  31  32 0
 6-311+G(2d,p)
 ****
 33  34 0
 6-311+G(2d,p)
 ****
 1  2  14  15  16  17  18  19  20  21  22  24  25  26 0
 3-21G
 ****
 27  35  36  37  38  39  40  41  42  43  44  45 0
 3-21G
 ****


