%nproc=1
%NoSave
%Mem=1900MB
#P OB98/GEN NMR

erre ene a

0 1
  C     -767.454    -383.893       0.257
  O     -768.275    -383.428      -0.795
  P     -769.136    -384.512      -1.611
  C     -767.294    -384.500      -3.480
  O     -768.117    -385.247      -2.598
  C     -765.887    -385.120      -3.543
  O     -765.377    -385.314      -2.206
  C     -765.831    -386.498      -4.201
  O     -765.897    -386.395      -5.620
  C     -764.504    -387.020      -3.658
  O     -763.398    -386.471      -4.412
  C     -764.498    -386.455      -2.220
  N     -764.886    -387.441      -1.215
  C     -763.845    -388.136      -0.602
  O     -762.664    -387.947      -0.870
  N     -764.224    -389.085       0.323
  C     -765.502    -389.426       0.642
  O     -765.795    -390.306       1.439
  C     -766.561    -388.688      -0.076
  C     -766.219    -387.736      -0.944
  O     -770.007    -383.557      -2.549
  O     -769.934    -385.408      -0.711
  H     -769.548    -382.716      -2.734
  H     -763.387    -385.517      -4.231
  H     -763.490    -389.576       0.796
  H     -767.594    -388.932       0.148
  H     -766.974    -387.189      -1.479
  H     -763.503    -386.079      -1.974
  H     -764.428    -388.109      -3.717
  H     -766.652    -387.113      -3.825
  H     -765.231    -384.405      -4.052
  H     -767.221    -383.468      -3.120
  H     -767.754    -384.490      -4.477
  P     -767.121    -387.169      -6.317
  C     -765.362    -388.884      -7.185
  O     -766.619    -388.671      -6.600
  O     -767.121    -386.474      -7.784
  O     -768.420    -387.048      -5.590
  H     -766.232    -386.353      -8.130
  H     -765.057    -389.913      -6.968
  H     -764.597    -388.197      -6.793
  H     -765.423    -388.765      -8.263
  H     -766.945    -383.065       0.705
  H     -766.736    -384.586      -0.130
  H     -768.059    -384.380       0.993

 3  4  5  6  7  8  9  10  11  12  13  24  28  29  30  31  32 0
 6-311+G(2d,p)
 ****
 33  34 0
 6-311+G(2d,p)
 ****
 1  2  14  15  16  17  18  19  20  21  22  23  25  26  27 0
 3-21G
 ****
 35  36  37  38  39  40  41  42  43  44  45 0
 3-21G
 ****


