%nproc=1
%NoSave
%Mem=1900MB
#P OB98/GEN NMR

erre ene a

0 1
  C     1094.104     -47.052    -500.059
  O     1093.644     -46.685    -501.370
  P     1092.298     -45.869    -501.640
  C     1093.481     -43.836    -502.748
  O     1092.669     -44.281    -501.672
  C     1093.208     -42.361    -503.058
  O     1091.954     -42.215    -503.789
  C     1093.030     -41.467    -501.850
  O     1094.270     -41.196    -501.187
  C     1092.373     -40.240    -502.478
  O     1093.350     -39.354    -503.035
  C     1091.516     -40.864    -503.608
  N     1090.098     -40.794    -503.347
  C     1089.513     -39.513    -503.370
  O     1090.201     -38.524    -503.528
  N     1088.150     -39.425    -503.216
  C     1087.453     -40.487    -502.923
  N     1086.099     -40.338    -502.783
  C     1088.058     -41.821    -502.753
  C     1089.362     -41.907    -502.982
  O     1091.185     -46.201    -500.698
  O     1091.892     -46.200    -503.164
  H     1090.934     -46.083    -503.262
  H     1093.971     -39.095    -502.309
  H     1087.441     -42.687    -502.481
  H     1089.882     -42.860    -502.897
  H     1091.740     -40.363    -504.555
  H     1091.787     -39.658    -501.759
  H     1092.329     -41.936    -501.142
  H     1094.022     -41.992    -503.697
  H     1085.728     -39.408    -502.926
  H     1093.254     -44.432    -503.650
  H     1085.479     -41.100    -502.597
  H     1094.549     -43.993    -502.502
  P     1094.398     -41.701    -499.674
  C     1096.344     -43.307    -500.297
  O     1095.059     -43.166    -499.709
  O     1092.880     -41.981    -499.230
  O     1095.065     -40.711    -498.743
  H     1092.758     -41.710    -498.307
  H     1096.849     -44.174    -499.808
  H     1096.965     -42.414    -500.129
  H     1096.227     -43.506    -501.349
  H     1095.025     -47.591    -500.142
  H     1093.371     -47.670    -499.584
  H     1094.259     -46.169    -499.475

 3  4  5  6  7  8  9  10  11  12  13  24  27  28  29  30  32 0
 6-311+G(2d,p)
 ****
 34  35 0
 6-311+G(2d,p)
 ****
 1  2  14  15  16  17  18  19  20  21  22  23  25  26 0
 3-21G
 ****
 31  33  36  37  38  39  40  41  42  43  44  45  46 0
 3-21G
 ****


