%nproc=1
%NoSave
%Mem=1900MB
#P OB98/GEN NMR

erre ene a

0 1
  C     -634.987     114.424    -690.634
  O     -635.220     114.594    -692.014
  H     -635.824     114.866    -690.087
  H     -634.065     114.923    -690.332
  H     -634.930     113.359    -690.382
  P     -634.129     114.028    -693.049
  C     -635.042     115.822    -694.682
  O     -633.892     115.240    -694.076
  C     -634.634     116.983    -695.589
  O     -634.133     118.091    -694.817
  C     -633.510     116.660    -696.576
  O     -633.929     115.841    -697.662
  C     -633.149     118.064    -697.018
  O     -634.144     118.566    -697.935
  C     -633.197     118.823    -695.668
  N     -631.884     118.920    -695.029
  C     -631.381     120.206    -694.836
  O     -632.012     121.194    -695.201
  N     -630.137     120.349    -694.248
  C     -629.461     119.301    -693.919
  N     -628.236     119.494    -693.355
  C     -629.947     117.914    -694.127
  C     -631.150     117.806    -694.675
  O     -634.438     112.705    -693.679
  O     -632.754     114.037    -692.227
  H     -634.999     118.517    -697.469
  H     -632.040     113.682    -692.822
  H     -629.326     117.071    -693.855
  H     -631.578     116.823    -694.860
  H     -633.609     119.835    -695.802
  H     -632.185     118.119    -697.522
  H     -632.651     116.221    -696.060
  H     -635.542     117.330    -696.105
  H     -627.922     120.445    -693.225
  H     -635.712     116.158    -693.885
  H     -627.597     118.732    -693.145
  H     -635.568     115.078    -695.288
  P     -632.853     114.780    -698.215
  C     -634.339     114.074    -700.248
  O     -633.126     114.656    -699.791
  O     -633.369     113.402    -697.607
  O     -631.422     115.083    -697.868
  H     -632.850     113.167    -696.809
  H     -634.353     114.072    -701.318
  H     -635.168     114.643    -699.881
  H     -634.410     113.069    -699.889

 6  7  8  9  10  11  12  13  14  15  16  26  30  31  32  33  35 0
 6-311+G(2d,p)
 ****
 37  38 0
 6-311+G(2d,p)
 ****
 1  2  3  4  5  17  18  19  20  21  22  23  24  25 0
 3-21G
 ****
 27  28  29  34  36  39  40  41  42  43  44  45  46 0
 3-21G
 ****


