%nproc=1
%NoSave
%Mem=1900MB
#P OB98/GEN NMR

erre ene a

0 1
  C     -419.569      39.319     248.097
  O     -419.107      38.439     249.101
  H     -419.619      38.778     247.148
  H     -418.883      40.164     247.984
  H     -420.571      39.683     248.349
  P     -418.863      39.063     250.557
  C     -416.289      39.238     250.229
  O     -417.510      39.922     250.474
  C     -415.133      40.241     250.217
  O     -415.430      41.317     249.295
  C     -414.883      40.914     251.558
  O     -414.161      40.091     252.460
  C     -414.089      42.133     251.126
  O     -412.693      41.836     250.980
  C     -414.728      42.486     249.770
  N     -415.608      43.649     249.869
  C     -415.004      44.884     249.634
  O     -413.810      45.009     249.358
  N     -415.810      45.978     249.769
  C     -417.121      45.966     250.156
  O     -417.775      46.991     250.312
  C     -417.703      44.634     250.408
  C     -416.931      43.554     250.260
  O     -418.450      37.789     251.436
  O     -420.034      39.787     251.136
  H     -419.186      37.543     252.024
  H     -412.648      40.949     250.573
  H     -415.393      46.879     249.601
  H     -418.738      44.590     250.720
  H     -417.332      42.566     250.451
  H     -413.953      42.707     249.026
  H     -414.174      42.935     251.855
  H     -415.835      41.245     252.001
  H     -414.228      39.727     249.868
  H     -416.335      38.740     249.253
  H     -416.140      38.479     251.005
  P     -414.635      40.067     253.994
  C     -412.798      41.882     254.534
  O     -414.157      41.464     254.622
  O     -413.622      38.982     254.598
  O     -416.085      39.743     254.157
  H     -412.787      38.945     254.092
  H     -412.686      42.834     255.010
  H     -412.516      41.963     253.505
  H     -412.172      41.164     255.021

 6  7  8  9  10  11  12  13  14  15  16  27  31  32  33  34  35 0
 6-311+G(2d,p)
 ****
 36  37 0
 6-311+G(2d,p)
 ****
 1  2  3  4  5  17  18  19  20  21  22  23  24  25 0
 3-21G
 ****
 26  28  29  30  38  39  40  41  42  43  44  45 0
 3-21G
 ****


