%nproc=1
%NoSave
%Mem=1900MB
#P OB98/GEN NMR

erre ene a

0 1
  C       65.757     155.229      56.647
  O       65.334     155.912      55.469
  P       66.165     155.701      54.113
  C       68.179     156.781      52.925
  O       67.262     156.866      54.011
  C       69.192     157.928      52.978
  O       68.594     159.185      52.609
  C       69.775     158.148      54.364
  O       70.718     157.140      54.687
  C       70.348     159.554      54.227
  O       71.641     159.523      53.602
  C       69.323     160.232      53.291
  N       68.426     161.142      53.985
  C       68.831     162.482      54.039
  O       69.908     162.823      53.553
  N       68.009     163.393      54.658
  C       66.889     162.999      55.181
  N       66.114     163.945      55.776
  C       66.431     161.596      55.155
  C       67.244     160.729      54.555
  O       65.349     155.484      52.881
  O       67.061     154.411      54.445
  H       72.272     159.255      54.299
  H       67.228     153.921      53.616
  H       65.486     161.319      55.601
  H       66.986     159.677      54.493
  H       69.842     160.804      52.510
  H       70.472     160.038      55.199
  H       68.967     158.152      55.108
  H       69.999     157.705      52.267
  H       66.455     164.899      55.791
  H       67.629     156.816      51.980
  H       65.204     163.748      56.167
  H       68.682     155.808      52.963
  P       70.305     156.066      55.804
  C       70.359     155.945      58.392
  O       70.511     156.748      57.237
  O       71.496     154.995      55.727
  O       68.978     155.412      55.586
  H       71.149     154.105      55.918
  H       70.832     156.459      59.237
  H       70.833     154.968      58.265
  H       69.298     155.813      58.612
  H       65.102     155.475      57.457
  H       66.755     155.526      56.893
  H       65.731     154.173      56.476

 3  4  5  6  7  8  9  10  11  12  13  23  27  28  29  30  32 0
 6-311+G(2d,p)
 ****
 34  35 0
 6-311+G(2d,p)
 ****
 1  2  14  15  16  17  18  19  20  21  22  24  25  26 0
 3-21G
 ****
 31  33  36  37  38  39  40  41  42  43  44  45  46 0
 3-21G
 ****


