%nproc=1
%NoSave
%Mem=1900MB
#P OB98/GEN NMR

erre ene a

0 1
  C      550.051     -51.951     -76.464
  O      548.721     -51.563     -76.198
  H      550.088     -53.039     -76.549
  H      550.699     -51.641     -75.641
  H      550.412     -51.515     -77.398
  P      548.322     -50.020     -76.346
  C      547.203     -50.467     -78.629
  O      548.175     -49.718     -77.912
  C      547.293     -50.178     -80.132
  O      548.623     -50.511     -80.597
  C      546.311     -51.044     -80.931
  O      545.906     -50.417     -82.141
  C      547.144     -52.271     -81.265
  O      546.659     -52.984     -82.402
  C      548.528     -51.654     -81.465
  N      553.247     -53.157     -82.668
  C      552.412     -52.285     -83.338
  N      552.902     -51.738     -84.476
  N      551.202     -51.995     -82.939
  C      550.816     -52.666     -81.829
  C      551.546     -53.573     -81.092
  C      552.899     -53.864     -81.522
  O      553.670     -54.644     -80.979
  N      550.817     -54.053     -80.034
  C      549.653     -53.447     -80.131
  N      549.612     -52.575     -81.193
  O      549.672     -49.243     -75.970
  O      547.172     -49.567     -75.499
  H      545.779     -53.336     -82.168
  H      549.470     -48.332     -75.687
  H      554.182     -53.328     -83.000
  H      548.817     -53.592     -79.458
  H      548.647     -51.301     -82.497
  H      547.102     -52.956     -80.413
  H      553.740     -52.089     -84.911
  H      545.429     -51.314     -80.357
  H      552.212     -51.359     -85.128
  H      547.149     -49.105     -80.318
  H      546.225     -50.170     -78.240
  H      547.322     -51.531     -78.433
  P      544.632     -49.448     -82.110
  C      545.904     -47.126     -82.046
  O      545.025     -48.050     -81.443
  O      543.660     -50.124     -81.041
  O      543.960     -49.268     -83.437
  H      542.842     -50.431     -81.464
  H      546.011     -46.270     -81.413
  H      545.508     -46.822     -82.992
  H      546.860     -47.585     -82.190

 6  7  8  9  10  11  12  13  14  15  26  29  33  34 0
 6-311+G(2d,p)
 ****
 36  38  39  40  41 0
 6-311+G(2d,p)
 ****
 1  2  3  4  5  16  17  18  19  20  21  22  23  24  25 0
 3-21G
 ****
 27  28  30  31  32  35  37  42  43  44  45  46  47 0
 3-21G
 ****
 48  49 0
 3-21G
 ****


