%nproc=1
%NoSave
%Mem=1900MB
#P OB98/GEN NMR

erre ene a

0 1
  C     -165.719     173.681     633.691
  O     -166.216     174.718     632.874
  H     -165.344     174.119     634.621
  H     -164.895     173.162     633.195
  H     -166.516     172.973     633.937
  P     -166.765     174.350     631.415
  C     -168.960     173.308     632.290
  O     -167.740     173.087     631.594
  C     -170.124     172.655     631.534
  O     -169.940     171.218     631.601
  C     -171.490     172.998     632.149
  O     -172.416     173.520     631.201
  C     -171.876     171.716     632.880
  O     -173.266     171.526     633.039
  C     -171.171     170.625     632.066
  N     -170.899     169.405     632.820
  C     -171.265     168.197     632.231
  O     -171.776     168.080     631.116
  N     -171.011     167.075     632.976
  C     -170.451     167.043     634.220
  O     -170.241     166.006     634.836
  C     -170.108     168.350     634.797
  C     -170.342     169.453     634.083
  O     -165.730     174.197     630.353
  O     -167.783     175.540     631.077
  H     -173.682     171.612     632.156
  H     -167.362     176.166     630.459
  H     -171.263     166.196     632.554
  H     -169.669     168.365     635.785
  H     -170.100     170.438     634.482
  H     -171.768     170.354     631.193
  H     -171.439     171.750     633.885
  H     -171.396     173.808     632.882
  H     -170.066     172.948     630.481
  H     -169.113     174.388     632.362
  H     -168.891     172.888     633.298
  P     -173.062     174.979     631.268
  C     -171.282     176.448     630.024
  O     -171.876     176.050     631.251
  O     -174.129     175.162     632.295
  O     -173.746     175.149     629.817
  H     -174.547     175.705     629.947
  H     -170.512     177.166     630.217
  H     -172.027     176.885     629.392
  H     -170.859     175.593     629.539

 6  7  8  9  10  11  12  13  14  15  16  26  31  32  33  34  35 0
 6-311+G(2d,p)
 ****
 36  37 0
 6-311+G(2d,p)
 ****
 1  2  3  4  5  17  18  19  20  21  22  23  24  25 0
 3-21G
 ****
 27  28  29  30  38  39  40  41  42  43  44  45 0
 3-21G
 ****


