%nproc=1
%NoSave
%Mem=1900MB
#P OB98/GEN NMR

erre ene a

0 1
  C      124.123    -711.189     231.643
  O      123.052    -712.015     231.240
  H      124.881    -711.809     232.134
  H      123.781    -710.430     232.353
  H      124.581    -710.707     230.775
  P      121.759    -711.328     230.595
  C      120.974    -712.954     228.746
  O      120.809    -712.522     230.087
  C      120.685    -714.460     228.622
  O      121.632    -715.198     229.453
  C      119.271    -714.857     229.094
  O      118.871    -716.002     228.331
  C      119.531    -715.238     230.545
  O      118.443    -715.944     231.091
  C      120.864    -715.977     230.398
  N      121.550    -716.130     231.669
  C      120.847    -716.804     232.675
  O      119.705    -717.208     232.469
  N      121.451    -716.964     233.900
  C      122.613    -716.450     234.126
  N      123.141    -716.633     235.363
  C      123.366    -715.679     233.106
  C      122.784    -715.571     231.910
  O      122.027    -710.263     229.581
  O      120.957    -710.744     231.857
  H      117.602    -715.440     230.968
  H      121.073    -709.778     231.899
  H      124.329    -715.256     233.344
  H      123.252    -715.027     231.097
  H      120.713    -716.975     229.962
  H      119.659    -714.341     231.158
  H      118.535    -714.053     228.973
  H      120.859    -714.773     227.589
  H      122.586    -717.153     236.036
  H      122.015    -712.759     228.464
  H      124.031    -716.250     235.655
  H      120.317    -712.401     228.077
  P      117.619    -715.999     227.330
  C      118.653    -716.575     225.035
  O      117.882    -717.041     226.141
  O      117.216    -714.632     226.865
  O      116.419    -716.675     228.162
  H      115.573    -716.294     227.869
  H      118.755    -717.360     224.315
  H      119.622    -716.276     225.377
  H      118.160    -715.740     224.583

 6  7  8  9  10  11  12  13  14  15  16  26  30  31  32  33  35 0
 6-311+G(2d,p)
 ****
 37  38 0
 6-311+G(2d,p)
 ****
 1  2  3  4  5  17  18  19  20  21  22  23  24  25 0
 3-21G
 ****
 27  28  29  34  36  39  40  41  42  43  44  45  46 0
 3-21G
 ****


