%nproc=1
%NoSave
%Mem=1900MB
#P OB98/GEN NMR

erre ene a

0 1
  C      -16.279     178.848    -914.871
  O      -16.899     177.613    -915.169
  H      -16.602     179.172    -913.873
  H      -16.589     179.604    -915.597
  H      -15.194     178.742    -914.876
  P      -16.427     176.872    -916.518
  C      -18.034     178.241    -918.073
  O      -16.711     177.916    -917.701
  C      -18.119     179.708    -918.541
  O      -17.268     179.874    -919.703
  C      -19.538     180.150    -918.938
  O      -19.712     181.523    -918.556
  C      -19.536     180.031    -920.449
  O      -20.522     180.858    -921.049
  C      -18.068     180.412    -920.770
  N      -17.653     179.907    -922.080
  C      -18.408     180.325    -923.189
  O      -19.391     181.062    -923.023
  N      -18.067     179.863    -924.434
  C      -17.092     179.016    -924.562
  N      -16.815     178.571    -925.817
  C      -16.309     178.511    -923.421
  C      -16.614     179.017    -922.227
  O      -17.565     175.760    -916.695
  O      -15.030     176.328    -916.460
  H      -21.400     180.419    -920.966
  H      -18.467     176.107    -916.548
  H      -15.502     177.790    -923.581
  H      -16.072     178.707    -921.337
  H      -17.953     181.506    -920.763
  H      -19.728     178.991    -920.749
  H      -20.317     179.531    -918.461
  H      -17.712     180.346    -917.751
  H      -17.409     178.925    -926.579
  H      -18.717     178.089    -917.223
  H      -16.127     177.866    -926.035
  H      -18.343     177.565    -918.874
  P      -20.612     181.896    -917.288
  C      -22.686     182.219    -918.817
  O      -22.155     181.604    -917.646
  O      -20.354     183.223    -916.672
  O      -20.266     180.706    -916.255
  H      -20.195     181.103    -915.367
  H      -23.713     181.940    -918.932
  H      -22.131     181.896    -919.673
  H      -22.613     183.283    -918.726

 6  7  8  9  10  11  12  13  14  15  16  26  30  31  32  33  35 0
 6-311+G(2d,p)
 ****
 37  38 0
 6-311+G(2d,p)
 ****
 1  2  3  4  5  17  18  19  20  21  22  23  24  25 0
 3-21G
 ****
 27  28  29  34  36  39  40  41  42  43  44  45  46 0
 3-21G
 ****


