%nproc=1
%NoSave
%Mem=1900MB
#P OB98/GEN NMR

erre ene a

0 1
  C     1021.667    -895.860     409.723
  O     1021.138    -896.610     408.649
  H     1022.281    -896.520     410.328
  H     1020.862    -895.460     410.342
  H     1022.293    -895.060     409.347
  P     1020.138    -895.880     407.620
  C     1017.933    -895.580     408.932
  O     1019.148    -894.980     408.494
  C     1017.574    -895.110     410.338
  O     1017.180    -893.700     410.254
  C     1016.387    -895.890     410.964
  O     1016.697    -896.420     412.251
  C     1015.215    -894.910     410.829
  O     1014.190    -895.130     411.789
  C     1015.893    -893.550     410.889
  N     1015.142    -892.490     410.263
  C     1014.027    -891.990     410.943
  O     1013.651    -892.350     412.056
  N     1013.333    -890.990     410.292
  C     1013.621    -890.470     409.064
  O     1012.946    -889.590     408.536
  C     1014.777    -891.060     408.378
  C     1015.472    -892.010     408.994
  O     1019.459    -896.790     406.645
  O     1021.065    -894.810     406.883
  H     1014.599    -895.060     412.656
  H     1021.264    -895.110     405.984
  H     1012.544    -890.620     410.788
  H     1015.034    -890.680     407.390
  H     1016.341    -892.470     408.497
  H     1016.079    -893.250     411.923
  H     1014.760    -895.060     409.828
  H     1016.183    -896.790     410.362
  H     1018.465    -895.180     410.973
  H     1018.063    -896.680     408.915
  H     1017.116    -895.320     408.235
  P     1017.388    -897.840     412.515
  C     1015.464    -899.210     413.681
  O     1016.254    -898.980     412.513
  O     1018.365    -897.870     413.634
  O     1018.194    -898.140     411.127
  H     1018.974    -898.640     411.396
  H     1014.768    -900.000     413.491
  H     1014.930    -898.317     413.932
  H     1016.102    -899.484     414.495

 6  7  8  9  10  11  12  13  14  15  16  26  31  32  33  34  35 0
 6-311+G(2d,p)
 ****
 36  37 0
 6-311+G(2d,p)
 ****
 1  2  3  4  5  17  18  19  20  21  22  23  24  25 0
 3-21G
 ****
 27  28  29  30  38  39  40  41  42  43  44  45 0
 3-21G
 ****


