%nproc=1
%NoSave
%Mem=1900MB
#P OB98/GEN NMR

erre ene a

0 1
  C      413.496     723.973    -890.460
  O      413.483     723.407    -891.770
  H      412.692     724.722    -890.410
  H      414.448     724.464    -890.290
  H      413.309     723.211    -889.710
  P      414.529     722.205    -892.030
  C      412.625     720.734    -893.040
  O      413.907     721.337    -893.240
  C      411.729     720.932    -894.270
  O      411.200     722.295    -894.250
  C      412.461     720.752    -895.630
  O      411.528     720.160    -896.540
  C      412.726     722.183    -896.060
  O      412.949     722.280    -897.470
  C      411.454     722.875    -895.550
  N      410.446     727.154    -897.980
  C      410.091     725.850    -898.300
  N      409.382     725.644    -899.420
  N      410.430     724.829    -897.550
  C      411.125     725.167    -896.430
  C      411.537     726.444    -896.030
  C      411.171     727.553    -896.860
  O      411.446     728.741    -896.660
  N      412.235     726.374    -894.850
  C      412.263     725.061    -894.560
  N      411.607     724.318    -895.490
  O      414.321     721.270    -890.740
  O      415.961     722.623    -892.210
  H      413.225     723.210    -897.660
  H      414.981     721.503    -890.060
  H      410.151     727.903    -898.590
  H      412.763     724.651    -893.670
  H      410.597     722.677    -896.200
  H      413.628     722.580    -895.550
  H      409.033     726.387    -900.000
  H      413.359     720.139    -895.570
  H      409.089     724.700    -899.640
  H      410.869     720.255    -894.190
  H      412.154     721.207    -892.160
  H      412.778     719.667    -892.840
  P      412.106     719.443    -897.850
  C      411.231     717.056    -897.230
  O      411.213     718.135    -898.150
  O      413.466     718.789    -897.300
  O      412.373     720.352    -899.020
  H      414.120     718.696    -898.020
  H      410.587     716.277    -897.581
  H      410.890     717.396    -896.274
  H      412.229     716.681    -897.140

 6  7  8  9  10  11  12  13  14  15  26  29  33  34 0
 6-311+G(2d,p)
 ****
 36  38  39  40  41 0
 6-311+G(2d,p)
 ****
 1  2  3  4  5  16  17  18  19  20  21  22  23  24  25 0
 3-21G
 ****
 27  28  30  31  32  35  37  42  43  44  45  46  47 0
 3-21G
 ****
 48  49 0
 3-21G
 ****


