%nproc=1
%NoSave
%Mem=1900MB
#P OB98/GEN NMR

erre ene a

0 1
  C     -136.341     135.279     126.773
  O     -136.688     133.908     126.758
  H     -136.213     135.619     125.742
  H     -135.398     135.423     127.307
  H     -137.130     135.875     127.242
  P     -137.085     133.196     128.137
  C     -135.863     132.742     130.364
  O     -135.731     133.014     128.974
  C     -134.533     132.997     131.070
  O     -134.161     134.388     130.945
  C     -134.567     132.710     132.566
  O     -134.519     131.321     132.822
  C     -133.348     133.488     133.035
  O     -132.143     132.741     132.802
  C     -133.406     134.738     132.129
  N     -133.988     135.901     132.801
  C     -133.221     136.485     133.803
  O     -132.123     136.051     134.154
  N     -133.774     137.577     134.418
  C     -135.036     138.056     134.212
  O     -135.516     138.984     134.855
  C     -135.810     137.385     133.158
  C     -135.260     136.356     132.511
  O     -137.920     131.967     128.013
  O     -137.853     134.346     128.947
  H     -132.262     131.883     133.255
  H     -138.812     134.166     128.932
  H     -133.239     138.005     135.156
  H     -136.809     137.748     132.956
  H     -135.818     135.844     131.736
  H     -132.399     135.009     131.788
  H     -133.386     133.715     134.099
  H     -135.464     133.157     133.016
  H     -133.760     132.394     130.577
  H     -136.148     131.691     130.491
  H     -136.654     133.378     130.778
  P     -134.644     130.782     134.326
  C     -133.325     131.105     136.507
  O     -133.273     131.124     135.083
  O     -135.105     129.367     134.460
  O     -135.690     131.786     135.003
  H     -136.470     131.284     135.307
  H     -132.360     131.346     136.902
  H     -133.614     130.130     136.840
  H     -134.040     131.824     136.847

 6  7  8  9  10  11  12  13  14  15  16  26  31  32  33  34  35 0
 6-311+G(2d,p)
 ****
 36  37 0
 6-311+G(2d,p)
 ****
 1  2  3  4  5  17  18  19  20  21  22  23  24  25 0
 3-21G
 ****
 27  28  29  30  38  39  40  41  42  43  44  45 0
 3-21G
 ****


