%nproc=1
%NoSave
%Mem=1900MB
#P OB98/GEN NMR

erre ene a

0 1
  C     -110.765     145.129     201.130
  O     -110.900     146.451     201.600
  H     -109.751     145.003     200.736
  H     -111.472     144.937     200.320
  H     -110.917     144.413     201.940
  P     -112.310     146.932     202.197
  C     -113.027     147.937     199.946
  O     -113.316     146.961     200.938
  C     -113.202     147.360     198.540
  O     -114.611     147.106     198.292
  C     -112.696     148.287     197.425
  O     -111.898     147.542     196.502
  C     -113.972     148.750     196.739
  O     -113.764     149.153     195.388
  C     -114.867     147.523     196.940
  N     -116.273     147.828     196.708
  C     -116.704     147.776     195.379
  O     -115.914     147.479     194.481
  N     -118.001     148.113     195.091
  C     -118.786     148.514     196.041
  N     -120.052     148.862     195.683
  C     -118.365     148.612     197.452
  C     -117.108     148.252     197.714
  O     -112.254     148.195     202.988
  O     -112.844     145.684     203.044
  H     -113.073     149.850     195.375
  H     -113.498     146.005     203.708
  H     -119.057     148.957     198.206
  H     -116.709     148.291     198.722
  H     -114.570     146.707     196.268
  H     -114.386     149.607     197.287
  H     -112.114     149.129     197.797
  H     -112.703     146.383     198.501
  H     -120.297     148.787     194.702
  H     -111.999     148.289     200.090
  H     -120.742     149.211     196.329
  H     -113.717     148.776     200.075
  P     -110.314     147.564     196.754
  C     -109.350     149.206     194.990
  O     -109.767     149.013     196.334
  O     -109.746     146.590     195.617
  O     -109.922     147.104     198.118
  H     -109.413     145.769     196.023
  H     -109.013     150.214     194.862
  H     -110.172     149.018     194.331
  H     -108.551     148.532     194.764

 6  7  8  9  10  11  12  13  14  15  16  26  30  31  32  33  35 0
 6-311+G(2d,p)
 ****
 37  38 0
 6-311+G(2d,p)
 ****
 1  2  3  4  5  17  18  19  20  21  22  23  24  25 0
 3-21G
 ****
 27  28  29  34  36  39  40  41  42  43  44  45  46 0
 3-21G
 ****


