%nproc=1
%NoSave
%Mem=1900MB
#P OB98/GEN NMR

erre ene a

0 1
  C      669.344    -449.410    -693.677
  O      668.188    -449.094    -694.441
  P      666.901    -450.060    -694.504
  C      665.134    -448.611    -693.285
  O      665.573    -449.152    -694.534
  C      664.403    -447.278    -693.459
  O      665.341    -446.194    -693.672
  C      663.453    -447.241    -694.675
  O      662.244    -447.912    -694.384
  C      663.326    -445.735    -694.892
  O      662.371    -445.169    -693.987
  C      664.735    -445.242    -694.556
  N      665.517    -442.410    -698.758
  C      664.623    -442.316    -697.753
  N      664.472    -443.096    -696.665
  C      665.402    -444.077    -696.673
  C      666.377    -444.303    -697.619
  C      666.430    -443.416    -698.705
  N      667.336    -443.524    -699.741
  N      667.137    -445.416    -697.295
  C      666.633    -445.847    -696.149
  N      665.580    -445.058    -695.731
  O      666.887    -451.122    -693.432
  O      666.939    -450.715    -695.961
  H      661.500    -445.552    -694.205
  H      666.510    -451.597    -695.930
  H      663.914    -441.479    -697.823
  H      666.991    -446.697    -695.593
  H      664.731    -444.280    -694.026
  H      662.995    -445.487    -695.912
  H      663.936    -447.705    -695.545
  H      663.848    -447.068    -692.531
  H      666.014    -448.457    -692.648
  H      667.274    -442.869    -700.497
  H      667.989    -444.310    -699.742
  H      664.466    -449.338    -692.810
  P      661.190    -448.226    -695.550
  C      661.574    -450.775    -695.414
  O      660.640    -449.711    -695.286
  O      661.670    -447.958    -696.942
  O      659.920    -447.305    -695.183
  H      659.469    -447.066    -696.010
  H      661.720    -450.997    -696.468
  H      661.182    -451.663    -694.900
  H      662.539    -450.489    -694.948
  H      670.067    -448.629    -693.784
  H      669.761    -450.332    -694.025
  H      669.075    -449.507    -692.646

 3  4  5  6  7  8  9  10  11  12  22  25  29  30  31  32 0
 6-311+G(2d,p)
 ****
 33  36  37 0
 6-311+G(2d,p)
 ****
 1  2  13  14  15  16  17  18  19  20  21  23  24  26 0
 3-21G
 ****
 27  28  34  35  38  39  40  41  42  43  44  45  46  47  48 0
 3-21G
 ****


