%nproc=1
%NoSave
%Mem=1900MB
#P OB98/GEN NMR

erre ene a

0 1
  C     -466.657    1000.963      79.410
  O     -465.547    1001.736      79.820
  H     -467.097    1000.483      80.288
  H     -466.338    1000.189      78.708
  H     -467.409    1001.605      78.942
  P     -464.749    1002.529      78.675
  C     -464.633    1005.001      79.452
  O     -463.987    1003.738      79.414
  C     -465.481    1005.140      80.714
  O     -464.661    1004.804      81.866
  C     -466.051    1006.548      80.933
  O     -467.370    1006.426      81.479
  C     -465.126    1007.130      81.988
  O     -465.742    1008.185      82.714
  C     -464.823    1005.883      82.815
  N     -462.754    1008.734      86.416
  C     -464.009    1008.793      85.830
  N     -464.842    1009.773      86.259
  N     -464.407    1007.975      84.895
  C     -463.487    1007.031      84.574
  C     -462.216    1006.868      85.078
  C     -461.777    1007.796      86.098
  O     -460.682    1007.806      86.640
  N     -461.577    1005.813      84.465
  C     -462.466    1005.344      83.609
  N     -463.636    1006.047      83.635
  O     -465.910    1003.269      77.853
  O     -463.885    1001.686      77.794
  H     -465.717    1008.992      82.152
  H     -465.655    1003.380      76.924
  H     -462.502    1009.394      87.122
  H     -462.303    1004.504      82.944
  H     -465.645    1005.620      83.494
  H     -464.214    1007.513      81.523
  H     -464.611    1010.413      87.003
  H     -466.079    1007.153      80.025
  H     -465.762    1009.825      85.847
  H     -466.282    1004.387      80.675
  H     -465.277    1005.099      78.566
  H     -463.874    1005.793      79.422
  P     -468.605    1006.755      80.519
  C     -470.664    1005.399      81.326
  O     -469.963    1006.640      81.361
  O     -468.652    1005.476      79.552
  O     -468.447    1008.016      79.728
  H     -468.343    1005.725      78.665
  H     -471.545    1005.470      81.930
  H     -470.033    1004.622      81.705
  H     -470.940    1005.174      80.317

 6  7  8  9  10  11  12  13  14  15  26  29  33  34 0
 6-311+G(2d,p)
 ****
 36  38  39  40  41 0
 6-311+G(2d,p)
 ****
 1  2  3  4  5  16  17  18  19  20  21  22  23  24  25 0
 3-21G
 ****
 27  28  30  31  32  35  37  42  43  44  45  46  47 0
 3-21G
 ****
 48  49 0
 3-21G
 ****


