%nproc=1
%NoSave
%Mem=1900MB
#P OB98/GEN NMR

erre ene a

0 1
  C       39.314    -241.597     123.970
  O       40.484    -242.346     123.710
  H       39.205    -240.837     123.192
  H       39.399    -241.099     124.938
  H       38.432    -242.243     123.958
  P       40.722    -243.647     124.619
  C       42.807    -242.722     125.856
  O       41.455    -243.143     125.954
  C       43.300    -242.210     127.206
  O       42.498    -241.089     127.642
  C       43.235    -243.240     128.329
  O       44.361    -244.108     128.314
  C       43.261    -242.329     129.546
  O       44.605    -241.860     129.775
  C       42.365    -241.170     129.089
  N       38.762    -240.122     132.496
  C       40.104    -239.793     132.494
  N       40.554    -239.094     133.558
  N       40.934    -240.124     131.540
  C       40.349    -240.833     130.546
  C       39.031    -241.217     130.433
  C       38.122    -240.837     131.491
  O       36.920    -241.081     131.531
  N       38.809    -241.915     129.276
  C       39.991    -241.973     128.698
  N       40.962    -241.337     129.432
  O       41.880    -244.437     123.840
  O       39.524    -244.510     124.828
  H       44.930    -241.514     128.924
  H       41.721    -245.397     123.929
  H       38.169    -239.850     133.261
  H       40.197    -242.457     127.754
  H       42.685    -240.208     129.503
  H       42.938    -242.834     130.457
  H       39.979    -238.850     134.350
  H       42.292    -243.797     128.311
  H       41.526    -238.813     133.563
  H       44.327    -241.846     127.075
  H       42.881    -241.918     125.116
  H       43.421    -243.566     125.527
  P       44.153    -245.604     128.867
  C       45.368    -244.961     131.071
  O       44.189    -245.481     130.466
  O       45.546    -246.311     128.519
  O       42.990    -246.333     128.288
  H       45.424    -247.278     128.466
  H       45.244    -244.939     132.134
  H       45.545    -243.969     130.712
  H       46.201    -245.584     130.822

 6  7  8  9  10  11  12  13  14  15  26  29  33  34 0
 6-311+G(2d,p)
 ****
 36  38  39  40  41 0
 6-311+G(2d,p)
 ****
 1  2  3  4  5  16  17  18  19  20  21  22  23  24  25 0
 3-21G
 ****
 27  28  30  31  32  35  37  42  43  44  45  46  47 0
 3-21G
 ****
 48  49 0
 3-21G
 ****


