%nproc=1
%NoSave
%Mem=1900MB
#P OB98/GEN NMR

erre ene a

0 1
  C       -4.523    -295.867     119.060
  O       -4.041    -296.483     117.883
  H       -5.390    -296.428     119.421
  H       -4.837    -294.846     118.832
  H       -3.757    -295.857     119.840
  P       -2.564    -296.089     117.397
  C       -1.489    -294.000     116.289
  O       -2.632    -294.551     116.928
  C       -1.909    -292.956     115.252
  O       -2.699    -293.623     114.216
  C       -2.762    -291.810     115.824
  O       -2.419    -290.593     115.150
  C       -4.171    -292.197     115.405
  O       -5.049    -291.077     115.346
  C       -3.898    -292.839     114.047
  N       -7.908    -292.808     111.023
  C       -6.848    -291.929     111.119
  N       -6.886    -290.834     110.329
  N       -5.835    -292.103     111.928
  C       -5.911    -293.250     112.646
  C       -6.904    -294.199     112.649
  C       -8.033    -293.986     111.764
  O       -9.009    -294.720     111.651
  N       -6.641    -295.184     113.571
  C       -5.498    -294.820     114.137
  N       -5.019    -293.652     113.609
  O       -2.421    -296.898     116.021
  O       -1.468    -296.416     118.355
  H       -5.905    -291.378     114.978
  H       -1.971    -297.751     116.184
  H       -8.673    -292.619     110.400
  H       -5.001    -295.349     114.932
  H       -3.715    -292.095     113.259
  H       -4.586    -292.928     116.109
  H       -7.619    -290.646     109.662
  H       -2.661    -291.675     116.906
  H       -6.096    -290.198     110.358
  H       -1.008    -292.563     114.765
  H       -0.937    -294.802     115.786
  H       -0.838    -293.545     117.044
  P       -1.427    -289.574     115.896
  C       -1.559    -287.901     117.889
  O       -2.197    -288.931     117.149
  O       -1.326    -288.352     114.866
  O       -0.080    -290.151     116.199
  H       -0.432    -287.963     114.901
  H       -2.200    -287.584     118.684
  H       -1.354    -287.072     117.244
  H       -0.641    -288.271     118.297

 6  7  8  9  10  11  12  13  14  15  26  29  33  34 0
 6-311+G(2d,p)
 ****
 36  38  39  40  41 0
 6-311+G(2d,p)
 ****
 1  2  3  4  5  16  17  18  19  20  21  22  23  24  25 0
 3-21G
 ****
 27  28  30  31  32  35  37  42  43  44  45  46  47 0
 3-21G
 ****
 48  49 0
 3-21G
 ****


