%nproc=1
%NoSave
%Mem=1900MB
#P OB98/GEN NMR

erre ene a

0 1
  C       10.905     619.455    -894.460
  O       10.142     618.411    -895.030
  H       10.473     619.705    -893.480
  H       10.862     620.339    -895.100
  H       11.940     619.143    -894.320
  P       10.665     617.828    -896.440
  C       10.751     615.408    -895.490
  O       10.211     616.280    -896.480
  C       10.146     614.007    -895.630
  O        8.789     614.018    -895.090
  C       10.067     613.492    -897.080
  O       10.300     612.075    -897.050
  C        8.612     613.731    -897.440
  O        8.173     612.910    -898.530
  C        7.944     613.426    -896.100
  N        3.224     612.636    -897.660
  C        4.373     611.881    -897.860
  N        4.250     610.754    -898.580
  N        5.544     612.222    -897.390
  C        5.518     613.356    -896.650
  C        4.445     614.191    -896.380
  C        3.161     613.820    -896.930
  O        2.106     614.443    -896.810
  N        4.833     615.259    -895.620
  C        6.130     615.081    -895.420
  N        6.586     613.939    -896.030
  O       12.248     617.752    -896.220
  O       10.302     618.634    -897.640
  H        8.183     611.980    -898.220
  H       12.675     618.568    -896.550
  H        2.349     612.331    -898.060
  H        6.774     615.748    -894.860
  H        7.881     612.352    -895.910
  H        8.452     614.782    -897.720
  H        3.370     610.407    -898.950
  H       10.768     613.966    -897.770
  H        5.068     610.179    -898.720
  H       10.730     613.313    -895.000
  H       10.505     615.811    -894.500
  H       11.839     615.367    -895.600
  P       10.680     611.355    -898.430
  C       12.823     610.136    -897.590
  O       11.498     610.014    -898.090
  O       11.822     612.318    -899.020
  O        9.546     611.195    -899.390
  H       11.828     612.259    -900.000
  H       13.229     609.162    -897.414
  H       12.809     610.687    -896.673
  H       13.429     610.651    -898.306

 6  7  8  9  10  11  12  13  14  15  26  29  33  34 0
 6-311+G(2d,p)
 ****
 36  38  39  40  41 0
 6-311+G(2d,p)
 ****
 1  2  3  4  5  16  17  18  19  20  21  22  23  24  25 0
 3-21G
 ****
 27  28  30  31  32  35  37  42  43  44  45  46  47 0
 3-21G
 ****
 48  49 0
 3-21G
 ****


