%nproc=1
%NoSave
%Mem=1900MB
#P OB98/GEN NMR

erre ene a

0 1
  C      170.384    -394.597    1212.509
  O      169.941    -395.728    1213.240
  P      170.537    -396.061    1214.686
  C      170.463    -398.230    1216.075
  O      169.745    -397.331    1215.220
  C      169.629    -399.479    1216.347
  O      168.374    -399.134    1217.011
  C      169.195    -400.240    1215.106
  O      170.225    -400.856    1214.347
  C      168.116    -401.137    1215.659
  O      168.665    -402.300    1216.307
  C      167.445    -400.204    1216.704
  N      166.149    -399.696    1216.242
  C      165.043    -400.428    1216.595
  O      165.090    -401.480    1217.293
  N      163.826    -399.977    1216.134
  C      163.631    -398.886    1215.317
  O      162.537    -398.549    1214.883
  C      164.880    -398.163    1214.938
  C      166.059    -398.577    1215.409
  O      170.575    -394.904    1215.644
  O      171.993    -396.663    1214.358
  H      167.936    -402.737    1216.778
  H      171.981    -397.460    1213.820
  H      162.993    -400.503    1216.392
  H      164.748    -397.285    1214.305
  H      166.933    -398.061    1215.159
  H      167.265    -400.757    1217.651
  H      167.440    -401.503    1214.869
  H      168.716    -399.535    1214.421
  H      170.178    -400.108    1217.055
  H      170.668    -397.717    1217.034
  H      171.428    -398.495    1215.604
  P      170.165    -401.024    1212.762
  C      171.862    -401.163    1210.780
  O      171.674    -401.003    1212.179
  O      169.142    -400.181    1212.037
  O      169.781    -402.575    1212.598
  H      169.240    -402.679    1211.792
  H      172.940    -401.159    1210.595
  H      171.435    -400.322    1210.229
  H      171.437    -402.115    1210.446
  H      169.867    -394.552    1211.573
  H      171.436    -394.677    1212.331
  H      170.184    -393.709    1213.071

 3  4  5  6  7  8  9  10  11  12  13  23  28  29  30  31  32 0
 6-311+G(2d,p)
 ****
 33  34 0
 6-311+G(2d,p)
 ****
 1  2  14  15  16  17  18  19  20  21  22  24  25  26  27 0
 3-21G
 ****
 35  36  37  38  39  40  41  42  43  44  45 0
 3-21G
 ****


