%nproc=1
%NoSave
%Mem=1900MB
#P OB98/GEN NMR

erre ene a

0 1
  C      394.797      -4.967    -401.542
  O      394.490      -4.005    -402.552
  P      395.437      -3.991    -403.850
  C      397.377      -2.433    -403.124
  O      396.951      -3.764    -403.371
  C      398.893      -2.280    -403.273
  O      399.332      -2.714    -404.590
  C      399.388      -0.842    -403.087
  O      400.682      -0.905    -402.479
  C      399.542      -0.347    -404.511
  O      400.425       0.774    -404.575
  C      400.046      -1.624    -405.203
  N      399.865      -1.604    -406.653
  C      400.618      -0.674    -407.376
  O      401.340       0.129    -406.788
  N      400.501      -0.650    -408.743
  C      399.664      -1.442    -409.333
  N      399.589      -1.369    -410.690
  C      398.806      -2.400    -408.605
  C      398.960      -2.425    -407.283
  O      395.054      -2.616    -404.573
  O      395.225      -5.161    -404.755
  H      400.706       0.887    -405.506
  H      394.873      -2.774    -405.518
  H      398.106      -3.029    -409.138
  H      398.380      -3.096    -406.663
  H      401.116      -1.773    -405.004
  H      398.569      -0.049    -404.916
  H      398.722      -0.231    -402.474
  H      399.377      -2.932    -402.538
  H      400.201      -0.705    -411.154
  H      397.090      -2.138    -402.110
  H      398.976      -1.940    -411.249
  H      396.847      -1.758    -403.799
  P      400.790      -0.693    -400.894
  C      400.534       1.859    -400.805
  O      399.904       0.614    -400.598
  O      402.277      -0.103    -400.752
  O      400.580      -1.867    -400.000
  H      402.493       0.007    -399.810
  H      399.790       2.653    -400.686
  H      400.955       1.920    -401.811
  H      401.321       2.011    -400.053
  H      394.098      -4.874    -400.737
  H      395.788      -4.796    -401.176
  H      394.735      -5.952    -401.956

 3  4  5  6  7  8  9  10  11  12  13  21  23  27  28  29  30  32 0
 6-311+G(2d,p)
 ****
 34  35 0
 6-311+G(2d,p)
 ****
 1  2  14  15  16  17  18  19  20  22  24  25  26 0
 3-21G
 ****
 31  33  36  37  38  39  40  41  42  43  44  45  46 0
 3-21G
 ****


