%nproc=1
%NoSave
%Mem=1900MB
#P OB98/GEN NMR

erre ene a

0 1
  C      -60.011     372.826    -160.321
  O      -59.954     372.165    -161.595
  P      -61.317     371.487    -162.124
  C      -60.445     371.203    -164.545
  O      -60.961     370.561    -163.389
  C      -59.677     370.202    -165.430
  O      -58.398     369.854    -164.823
  C      -60.429     368.895    -165.690
  O      -60.090     368.450    -167.009
  C      -59.812     367.949    -164.681
  O      -60.029     366.591    -165.030
  C      -58.354     368.414    -164.718
  N      -54.699     365.299    -162.984
  C      -55.223     365.479    -164.215
  N      -56.212     366.321    -164.596
  C      -56.640     367.047    -163.544
  C      -56.206     366.966    -162.231
  C      -55.187     366.028    -161.951
  N      -54.675     365.825    -160.700
  N      -56.923     367.837    -161.423
  C      -57.771     368.432    -162.249
  N      -57.612     368.007    -163.537
  O      -62.112     372.720    -162.759
  O      -62.113     370.823    -161.046
  H      -59.623     366.413    -165.905
  H      -62.868     372.967    -162.196
  H      -54.784     364.861    -165.007
  H      -58.507     369.164    -161.955
  H      -57.813     368.015    -165.588
  H      -60.252     368.122    -163.683
  H      -61.515     368.971    -165.582
  H      -59.461     370.707    -166.394
  H      -59.766     372.017    -164.252
  H      -53.961     365.114    -160.581
  H      -55.068     366.336    -159.919
  H      -61.263     371.675    -165.096
  P      -61.322     368.185    -168.009
  C      -60.220     369.389    -170.026
  O      -60.698     368.173    -169.488
  O      -62.158     369.547    -167.956
  O      -62.155     366.993    -167.643
  H      -63.094     369.375    -168.173
  H      -59.294     369.190    -170.569
  H      -60.023     370.141    -169.248
  H      -60.968     369.786    -170.721
  H      -59.049     373.231    -160.086
  H      -60.296     372.123    -159.567
  H      -60.731     373.617    -160.361

 3  4  5  6  7  8  9  10  11  12  22  25  29  30  31  32 0
 6-311+G(2d,p)
 ****
 33  36  37 0
 6-311+G(2d,p)
 ****
 1  2  13  14  15  16  17  18  19  20  21  23  24  26 0
 3-21G
 ****
 27  28  34  35  38  39  40  41  42  43  44  45  46  47  48 0
 3-21G
 ****


