%nproc=1
%NoSave
%Mem=1900MB
#P OB98/GEN NMR

erre ene a

0 1
  C     -487.748    -184.307     957.293
  O     -487.935    -184.837     958.589
  P     -488.287    -183.876     959.833
  C     -488.331    -185.775     961.596
  O     -487.645    -184.614     961.119
  C     -487.869    -186.125     963.002
  O     -486.472    -186.497     963.025
  C     -488.011    -184.984     964.015
  O     -489.363    -184.838     964.417
  C     -487.058    -185.439     965.103
  O     -487.698    -186.388     965.990
  C     -485.931    -186.131     964.312
  N     -484.747    -185.283     964.187
  C     -483.662    -185.626     964.985
  O     -483.738    -186.572     965.798
  N     -482.515    -184.845     964.945
  C     -482.482    -183.815     964.137
  N     -481.323    -183.100     964.123
  C     -483.619    -183.397     963.299
  C     -484.719    -184.165     963.365
  O     -489.721    -183.486     959.954
  O     -487.296    -182.632     959.611
  H     -487.020    -186.674     966.631
  H     -487.606    -182.047     958.869
  H     -483.558    -182.524     962.669
  H     -485.604    -183.937     962.777
  H     -485.631    -187.071     964.794
  H     -486.717    -184.609     965.740
  H     -487.636    -184.045     963.567
  H     -488.448    -187.000     963.352
  H     -480.587    -183.390     964.757
  H     -488.083    -186.609     960.911
  H     -481.221    -182.243     963.583
  H     -489.411    -185.599     961.555
  P     -489.845    -183.460     965.075
  C     -491.652    -184.613     966.518
  O     -490.490    -183.796     966.511
  O     -490.691    -182.582     964.197
  O     -488.479    -182.700     965.451
  H     -488.538    -181.773     965.191
  H     -491.775    -185.040     967.506
  H     -491.560    -185.418     965.797
  H     -492.523    -184.000     966.270
  H     -487.524    -185.101     956.612
  H     -486.937    -183.609     957.307
  H     -488.642    -183.809     956.979

 3  4  5  6  7  8  9  10  11  12  13  23  27  28  29  30  32 0
 6-311+G(2d,p)
 ****
 34  35 0
 6-311+G(2d,p)
 ****
 1  2  14  15  16  17  18  19  20  21  22  24  25  26 0
 3-21G
 ****
 31  33  36  37  38  39  40  41  42  43  44  45  46 0
 3-21G
 ****


