%nproc=1
%NoSave
%Mem=1900MB
#P OB98/GEN NMR

erre ene a

0 1
  C      -16.340     492.154     -57.192
  O      -16.167     493.465     -57.748
  P      -15.778     494.645     -56.723
  C      -13.809     495.525     -58.156
  O      -15.062     495.820     -57.553
  C      -13.409     496.621     -59.157
  O      -14.243     496.559     -60.352
  C      -13.520     498.045     -58.600
  O      -12.477     498.828     -59.191
  C      -14.854     498.513     -59.145
  O      -14.960     499.930     -59.130
  C      -14.830     497.869     -60.530
  N      -18.343     500.286     -63.340
  C      -17.109     500.649     -62.926
  N      -16.239     499.953     -62.162
  C      -16.747     498.743     -61.853
  C      -17.991     498.239     -62.196
  C      -18.824     499.073     -62.973
  N      -20.083     498.716     -63.371
  N      -18.176     496.978     -61.648
  C      -17.057     496.736     -60.988
  N      -16.157     497.758     -61.112
  O      -14.595     494.001     -55.861
  O      -16.913     495.079     -55.850
  H      -14.317     500.306     -59.766
  H      -14.899     493.799     -54.961
  H      -16.778     501.638     -63.255
  H      -16.857     495.843     -60.415
  H      -14.214     498.435     -61.242
  H      -15.676     498.101     -58.534
  H      -13.470     498.102     -57.507
  H      -12.365     496.424     -59.470
  H      -13.866     494.560     -58.685
  H      -20.625     499.383     -63.908
  H      -20.466     497.830     -63.063
  H      -13.050     495.395     -57.380
  P      -11.262     499.243     -58.220
  C       -9.579     499.177     -60.195
  O      -10.166     499.940     -59.160
  O      -10.595     497.842     -57.826
  O      -11.687     500.030     -57.019
  H      -10.142     497.920     -56.965
  H       -9.477     499.807     -61.082
  H      -10.182     498.293     -60.452
  H       -8.588     498.846     -59.874
  H      -16.594     491.467     -57.972
  H      -17.125     492.176     -56.465
  H      -15.430     491.842     -56.724

 3  4  5  6  7  8  9  10  11  12  22  25  29  30  31  32 0
 6-311+G(2d,p)
 ****
 33  36  37 0
 6-311+G(2d,p)
 ****
 1  2  13  14  15  16  17  18  19  20  21  23  24  26 0
 3-21G
 ****
 27  28  34  35  38  39  40  41  42  43  44  45  46  47  48 0
 3-21G
 ****


