%nproc=1
%NoSave
%Mem=1900MB
#P OB98/GEN NMR

erre ene a

0 1
  C        8.108     -79.977      59.033
  O        6.910     -79.237      59.017
  P        6.505     -78.176      60.138
  C        5.459     -78.242      62.536
  O        5.952     -78.970      61.416
  C        5.270     -79.160      63.753
  O        6.568     -79.670      64.151
  C        4.700     -78.393      64.958
  O        3.704     -79.104      65.680
  C        5.954     -77.978      65.720
  O        5.711     -77.652      67.080
  C        6.876     -79.170      65.471
  N       11.361     -80.416      67.520
  C       10.177     -81.130      67.516
  N       10.140     -82.224      68.308
  N        9.122     -80.778      66.823
  C        9.270     -79.601      66.169
  C       10.394     -78.809      66.099
  C       11.561     -79.225      66.841
  O       12.593     -78.564      66.966
  N       10.159     -77.652      65.398
  C        8.883     -77.729      65.072
  N        8.294     -78.880      65.547
  O        5.753     -76.969      59.680
  O        7.956     -77.681      60.655
  H        5.002     -76.981      67.099
  H        7.868     -76.737      60.897
  H       12.112     -80.695      68.141
  H        8.332     -76.973      64.523
  H        6.693     -79.972      66.186
  H        6.345     -77.073      65.240
  H       10.882     -82.433      68.962
  H        4.173     -77.491      64.624
  H        9.223     -82.613      68.514
  H        4.647     -80.014      63.465
  H        4.495     -77.821      62.228
  H        6.127     -77.412      62.778
  P        2.815     -78.610      66.913
  C        3.051     -78.400      69.460
  O        3.724     -78.606      68.233
  O        1.788     -79.804      67.192
  O        2.071     -77.336      66.673
  H        0.911     -79.438      67.417
  H        3.788     -78.147      70.229
  H        2.532     -79.318      69.755
  H        2.329     -77.583      69.376
  H        8.144     -80.616      58.176
  H        8.149     -80.570      59.923
  H        8.942     -79.307      59.013

 3  4  5  6  7  8  9  10  11  12  23  26  30  31 0
 6-311+G(2d,p)
 ****
 33  35  36  37  38 0
 6-311+G(2d,p)
 ****
 1  2  13  14  15  16  17  18  19  20  21  22  24  25 0
 3-21G
 ****
 27  28  29  32  34  39  40  41  42  43  44  45  46  47  48  49 0
 3-21G
 ****


