%nproc=1
%NoSave
%Mem=1900MB
#P OB98/GEN NMR

erre ene a

0 1
  C     -892.280      68.865    -899.166
  O     -893.300      68.020    -898.656
  P     -894.650      68.743    -898.126
  C     -895.150      70.297    -896.116
  O     -894.330      69.284    -896.646
  C     -895.630      69.910    -894.716
  O     -894.520      69.407    -893.916
  C     -896.210      71.050    -893.906
  O     -897.520      71.385    -894.336
  C     -896.140      70.462    -892.496
  O     -897.220      69.546    -892.296
  C     -894.810      69.698    -892.546
  N     -891.160      69.733    -888.946
  C     -892.130      68.833    -889.216
  N     -893.080      68.915    -890.186
  C     -892.950      70.050    -890.886
  C     -892.020      71.064    -890.716
  C     -891.100      70.872    -889.676
  N     -890.080      71.800    -889.376
  N     -892.210      72.094    -891.606
  C     -893.210      71.698    -892.346
  N     -893.680      70.458    -891.986
  O     -895.640      67.496    -897.886
  O     -895.230      69.763    -899.086
  H     -897.090      68.796    -892.926
  H     -896.560      67.778    -898.076
  H     -892.160      67.953    -888.606
  H     -893.670      72.267    -893.166
  H     -894.840      68.739    -891.996
  H     -896.190      71.223    -891.706
  H     -895.580      71.960    -893.966
  H     -896.380      69.091    -894.816
  H     -896.020      70.461    -896.756
  H     -889.570      71.627    -888.536
  H     -890.150      72.705    -889.836
  H     -894.590      71.244    -896.096
  P     -898.020      72.889    -894.156
  C     -898.080      74.350    -892.016
  O     -898.180      73.035    -892.546
  O     -899.540      72.816    -894.646
  O     -897.180      73.929    -894.806
  H     -900.000      72.056    -894.226
  H     -898.260      74.318    -890.926
  H     -898.830      75.004    -892.496
  H     -897.070      74.767    -892.196
  H     -891.448      68.270    -899.481
  H     -891.964      69.544    -898.402
  H     -892.659      69.418    -900.000

 3  4  5  6  7  8  9  10  11  12  22  25  29  30  31  32 0
 6-311+G(2d,p)
 ****
 33  36  37 0
 6-311+G(2d,p)
 ****
 1  2  13  14  15  16  17  18  19  20  21  23  24  26 0
 3-21G
 ****
 27  28  34  35  38  39  40  41  42  43  44  45  46  47  48 0
 3-21G
 ****


