%nproc=1
%NoSave
%Mem=1900MB
#P OB98/GEN NMR

erre ene a

0 1
  C     -132.472    -300.910    -206.665
  O     -131.481    -300.045    -207.184
  H     -132.484    -300.824    -205.577
  H     -132.234    -301.944    -206.935
  H     -133.462    -300.642    -207.049
  P     -131.516    -299.763    -208.763
  C     -130.959    -297.227    -208.788
  O     -130.500    -298.549    -209.031
  C     -129.803    -296.343    -208.327
  O     -129.382    -296.708    -207.000
  C     -128.564    -296.418    -209.215
  O     -128.671    -295.565    -210.350
  C     -127.499    -295.914    -208.255
  O     -127.583    -294.475    -208.150
  C     -127.935    -296.561    -206.930
  N     -123.660    -299.031    -205.764
  C     -123.863    -297.690    -206.021
  N     -122.773    -296.892    -205.964
  N     -125.032    -297.172    -206.307
  C     -126.028    -298.090    -206.352
  C     -125.945    -299.451    -206.127
  C     -124.652    -300.002    -205.793
  O     -124.417    -301.184    -205.550
  N     -127.165    -300.056    -206.262
  C     -127.980    -299.073    -206.593
  N     -127.333    -297.859    -206.665
  O     -132.961    -299.104    -208.973
  O     -131.338    -300.968    -209.629
  H     -127.592    -294.121    -209.057
  H     -133.562    -299.776    -209.347
  H     -122.736    -299.383    -205.558
  H     -129.038    -299.183    -206.783
  H     -127.711    -295.923    -206.062
  H     -126.486    -296.149    -208.583
  H     -121.840    -297.230    -205.768
  H     -128.335    -297.454    -209.506
  H     -122.900    -295.903    -206.145
  H     -130.174    -295.309    -208.277
  H     -131.727    -297.254    -208.009
  H     -131.395    -296.829    -209.709
  P     -128.831    -296.244    -211.796
  C     -131.007    -295.027    -212.502
  O     -129.616    -295.190    -212.722
  O     -129.918    -297.389    -211.528
  O     -127.578    -296.808    -212.377
  H     -129.502    -298.271    -211.607
  H     -131.393    -294.300    -213.185
  H     -131.173    -294.697    -211.498
  H     -131.505    -295.962    -212.657

 6  7  8  9  10  11  12  13  14  15  26  29  33  34 0
 6-311+G(2d,p)
 ****
 36  38  39  40  41 0
 6-311+G(2d,p)
 ****
 1  2  3  4  5  16  17  18  19  20  21  22  23  24  25 0
 3-21G
 ****
 27  28  30  31  32  35  37  42  43  44  45  46  47 0
 3-21G
 ****
 48  49 0
 3-21G
 ****


