%nproc=1
%NoSave
%Mem=1900MB
#P OB98/GEN NMR

erre ene a

0 1
  C     -190.704    -294.724     640.693
  O     -189.467    -295.126     641.257
  H     -191.483    -295.407     641.044
  H     -190.649    -294.776     639.603
  H     -190.953    -293.707     641.006
  P     -188.212    -294.159     641.012
  C     -187.262    -294.180     643.462
  O     -187.880    -293.442     642.416
  C     -188.069    -294.029     644.750
  O     -189.376    -294.621     644.623
  C     -187.464    -294.751     645.948
  O     -186.289    -294.130     646.422
  C     -188.631    -294.696     646.918
  O     -188.726    -293.408     647.546
  C     -189.828    -294.933     645.968
  N     -190.357    -296.290     646.057
  C     -191.761    -296.406     646.000
  O     -192.456    -295.396     645.870
  N     -192.315    -297.646     646.122
  C     -191.558    -298.690     646.263
  N     -192.181    -299.894     646.390
  C     -190.082    -298.613     646.302
  C     -189.558    -297.401     646.199
  O     -188.850    -292.968     640.151
  O     -187.021    -294.805     640.386
  H     -189.556    -293.412     648.053
  H     -189.633    -292.566     640.564
  H     -189.490    -299.510     646.415
  H     -188.486    -297.257     646.222
  H     -190.647    -294.235     646.200
  H     -188.528    -295.435     647.717
  H     -187.273    -295.809     645.703
  H     -188.193    -292.955     644.953
  H     -193.188    -299.904     646.380
  H     -186.231    -293.861     643.609
  H     -191.693    -300.770     646.541
  H     -187.240    -295.234     643.152
  P     -184.928    -294.963     646.570
  C     -183.643    -293.172     645.235
  O     -183.999    -294.554     645.321
  O     -185.101    -296.436     646.757
  O     -184.187    -294.238     647.800
  H     -183.995    -293.299     647.653
  H     -183.029    -293.015     644.373
  H     -183.103    -292.887     646.114
  H     -184.530    -292.580     645.154

 6  7  8  9  10  11  12  13  14  15  16  26  30  31  32  33  35 0
 6-311+G(2d,p)
 ****
 37  38 0
 6-311+G(2d,p)
 ****
 1  2  3  4  5  17  18  19  20  21  22  23  24  25 0
 3-21G
 ****
 27  28  29  34  36  39  40  41  42  43  44  45  46 0
 3-21G
 ****


