%nproc=1
%NoSave
%Mem=1900MB
#P OB98/GEN NMR

erre ene a

0 1
  C      412.030     -56.509       5.042
  O      413.106     -55.591       5.095
  H      411.830     -56.872       6.053
  H      412.288     -57.363       4.405
  H      411.134     -56.012       4.659
  P      413.586     -54.966       3.696
  C      414.405     -55.980       1.473
  O      413.881     -56.246       2.769
  C      414.679     -57.290       0.728
  O      415.772     -57.977       1.394
  C      413.478     -58.239       0.702
  O      413.426     -58.899      -0.566
  C      413.801     -59.252       1.789
  O      413.156     -60.505       1.572
  C      415.328     -59.306       1.717
  N      417.376     -63.272       4.194
  C      417.015     -63.103       2.906
  N      416.488     -61.998       2.322
  C      416.392     -60.993       3.210
  C      416.717     -61.021       4.556
  C      417.229     -62.233       5.053
  N      417.576     -62.425       6.372
  N      416.434     -59.804       5.146
  C      415.962     -59.049       4.168
  N      415.899     -59.732       2.984
  O      414.692     -53.967       3.779
  O      412.209     -54.416       3.097
  H      412.186     -60.365       1.614
  H      411.484     -55.060       3.216
  H      417.159     -63.962       2.253
  H      415.636     -58.017       4.269
  H      415.688     -59.998       0.946
  H      413.471     -58.866       2.762
  H      412.535     -57.727       0.892
  H      415.023     -57.052      -0.285
  H      415.333     -55.402       1.551
  H      417.948     -63.323       6.639
  H      417.489     -61.656       7.021
  H      413.668     -55.383       0.926
  P      412.649     -58.175      -1.769
  C      410.291     -58.191      -2.816
  O      411.119     -58.658      -1.757
  O      413.326     -58.220      -3.097
  O      412.529     -56.662      -1.243
  H      412.642     -56.053      -2.001
  H      409.302     -58.581      -2.694
  H      410.691     -58.519      -3.753
  H      410.257     -57.122      -2.797

 6  7  8  9  10  11  12  13  14  15  25  28  32  33  34  35 0
 6-311+G(2d,p)
 ****
 36  39  40 0
 6-311+G(2d,p)
 ****
 1  2  3  4  5  16  17  18  19  20  21  22  23  24 0
 3-21G
 ****
 26  27  29  30  31  37  38  41  42  43  44  45  46  47 0
 3-21G
 ****
 48 0
 3-21G
 ****


