%nproc=1
%NoSave
%Mem=1900MB
#P OB98/GEN NMR

erre ene a

0 1
  C     -184.628     435.218     284.121
  O     -183.423     435.942     284.260
  H     -184.840     435.098     283.054
  H     -185.456     435.755     284.585
  H     -184.528     434.225     284.570
  P     -182.945     436.352     285.735
  C     -180.492     435.757     285.183
  O     -181.399     436.756     285.622
  C     -179.102     435.972     285.798
  O     -178.617     437.293     285.413
  C     -179.087     435.914     287.335
  O     -177.800     435.432     287.732
  C     -179.245     437.380     287.691
  O     -178.936     437.616     289.043
  C     -178.346     438.022     286.631
  N     -178.591     439.446     286.479
  C     -178.052     440.274     287.473
  O     -177.432     439.787     288.416
  N     -178.269     441.626     287.390
  C     -179.009     442.105     286.438
  N     -179.191     443.453     286.422
  C     -179.638     441.259     285.403
  C     -179.387     439.951     285.482
  O     -183.260     435.371     286.815
  O     -183.669     437.756     285.996
  H     -178.034     437.285     289.258
  H     -184.418     437.635     286.607
  H     -180.260     441.707     284.641
  H     -179.806     439.251     284.767
  H     -177.286     437.871     286.874
  H     -180.285     437.700     287.550
  H     -179.876     435.276     287.745
  H     -178.405     435.241     285.371
  H     -178.750     443.990     287.153
  H     -180.429     435.824     284.092
  H     -179.761     443.932     285.742
  H     -180.861     434.761     285.457
  P     -177.560     433.954     288.309
  C     -175.147     433.881     287.397
  O     -175.989     433.718     288.533
  O     -178.228     432.878     287.514
  O     -178.142     433.993     289.801
  H     -178.484     433.107     290.031
  H     -174.131     433.697     287.677
  H     -175.239     434.880     287.025
  H     -175.438     433.188     286.635

 6  7  8  9  10  11  12  13  14  15  16  26  30  31  32  33  35 0
 6-311+G(2d,p)
 ****
 37  38 0
 6-311+G(2d,p)
 ****
 1  2  3  4  5  17  18  19  20  21  22  23  24  25 0
 3-21G
 ****
 27  28  29  34  36  39  40  41  42  43  44  45  46 0
 3-21G
 ****


