%nproc=1
%NoSave
%Mem=1900MB
#P OB98/GEN NMR

erre ene a

0 1
  C     -109.366     193.101    -120.150
  O     -110.687     193.153    -119.659
  H     -108.680     193.370    -119.343
  H     -109.242     193.817    -120.965
  H     -109.123     192.093    -120.499
  P     -111.857     192.642    -120.630
  C     -111.440     190.139    -120.078
  O     -111.465     191.148    -121.076
  C     -112.835     189.539    -119.893
  O     -113.294     189.022    -121.169
  C     -112.882     188.394    -118.877
  O     -114.102     188.490    -118.138
  C     -112.910     187.148    -119.742
  O     -113.508     186.032    -119.082
  C     -113.670     187.645    -120.978
  N     -113.368     186.833    -122.154
  C     -114.404     186.649    -123.074
  O     -115.510     187.153    -122.870
  N     -114.186     185.855    -124.169
  C     -113.058     185.226    -124.292
  N     -112.912     184.430    -125.386
  C     -111.961     185.336    -123.311
  C     -112.178     186.153    -122.282
  O     -111.629     193.492    -121.964
  O     -113.241     192.783    -120.093
  H     -113.328     185.228    -119.614
  H     -112.474     193.670    -122.420
  H     -111.050     184.771    -123.444
  H     -111.434     186.291    -121.508
  H     -114.754     187.619    -120.802
  H     -111.886     186.867    -120.014
  H     -112.036     188.398    -118.185
  H     -113.523     190.343    -119.607
  H     -113.695     184.367    -126.026
  H     -111.116     190.582    -119.131
  H     -112.098     183.860    -125.559
  H     -110.726     189.361    -120.365
  P     -114.003     189.093    -116.656
  C     -114.888     191.483    -117.155
  O     -113.781     190.677    -116.775
  O     -112.593     188.550    -116.130
  O     -115.123     188.675    -115.762
  H     -112.731     187.861    -115.454
  H     -114.587     192.509    -117.191
  H     -115.676     191.367    -116.440
  H     -115.235     191.179    -118.120

 6  7  8  9  10  11  12  13  14  15  16  26  30  31  32  33  35 0
 6-311+G(2d,p)
 ****
 37  38 0
 6-311+G(2d,p)
 ****
 1  2  3  4  5  17  18  19  20  21  22  23  24  25 0
 3-21G
 ****
 27  28  29  34  36  39  40  41  42  43  44  45  46 0
 3-21G
 ****


