%nproc=1
%NoSave
%Mem=1900MB
#P OB98/GEN NMR

erre ene a

0 1
  C      353.758    -123.949     248.049
  O      355.059    -124.499     247.943
  H      353.209    -124.164     247.128
  H      353.803    -122.864     248.179
  H      353.224    -124.399     248.890
  P      356.112    -124.183     249.108
  C      357.158    -122.013     250.052
  O      356.421    -122.616     248.994
  C      357.685    -120.650     249.614
  O      356.639    -119.892     248.975
  C      358.172    -119.794     250.774
  O      359.433    -120.234     251.233
  C      358.150    -118.417     250.140
  O      359.307    -118.199     249.322
  C      356.870    -118.496     249.275
  N      355.709    -117.901     249.928
  C      355.730    -116.508     250.070
  O      356.684    -115.855     249.652
  N      354.676    -115.901     250.706
  C      353.684    -116.613     251.139
  N      352.671    -115.948     251.760
  C      353.616    -118.077     250.998
  C      354.654    -118.652     250.394
  O      357.333    -125.049     249.169
  O      355.236    -124.282     250.444
  H      359.236    -117.277     249.003
  H      355.244    -125.194     250.789
  H      352.766    -118.629     251.372
  H      354.683    -119.726     250.244
  H      357.022    -117.986     248.315
  H      358.122    -117.630     250.892
  H      357.438    -119.806     251.585
  H      358.483    -120.810     248.878
  H      352.764    -114.941     251.844
  H      357.992    -122.682     250.288
  H      351.812    -116.382     252.058
  H      356.534    -121.907     250.948
  P      359.851    -120.049     252.771
  C      359.834    -118.061     254.413
  O      359.759    -118.471     253.049
  O      361.138    -120.695     253.164
  O      358.585    -120.627     253.562
  H      358.552    -121.615     253.521
  H      359.762    -116.995     254.469
  H      360.767    -118.378     254.830
  H      359.029    -118.503     254.963

 6  7  8  9  10  11  12  13  14  15  16  26  30  31  32  33  35 0
 6-311+G(2d,p)
 ****
 37  38 0
 6-311+G(2d,p)
 ****
 1  2  3  4  5  17  18  19  20  21  22  23  24  25 0
 3-21G
 ****
 27  28  29  34  36  39  40  41  42  43  44  45  46 0
 3-21G
 ****


