%nproc=1
%NoSave
%Mem=1900MB
#P OB98/GEN NMR

erre ene a

0 1
  C       -8.778      74.070      27.765
  O       -8.893      75.444      27.457
  H       -7.806      73.696      27.435
  H       -8.856      73.945      28.848
  H       -9.580      73.500      27.285
  P       -8.980      75.832      25.902
  C       -6.477      76.525      26.018
  O       -7.472      75.763      25.350
  C       -5.100      76.253      25.410
  O       -4.801      74.838      25.544
  C       -5.007      76.610      23.924
  O       -3.721      77.175      23.663
  C       -5.132      75.265      23.229
  O       -4.531      75.265      21.939
  C       -4.457      74.340      24.236
  N       -2.920      69.570      23.254
  C       -2.237      70.720      23.438
  N       -2.723      71.950      23.703
  C       -4.063      71.914      23.822
  C       -4.895      70.820      23.661
  C       -4.271      69.599      23.352
  N       -4.963      68.431      23.126
  N       -6.217      71.190      23.825
  C       -6.178      72.483      24.081
  N       -4.900      72.965      24.085
  O       -9.287      77.406      25.959
  O       -9.997      75.091      25.104
  H       -5.161      75.670      21.307
  H      -10.237      77.543      26.140
  H       -1.155      70.642      23.356
  H       -7.040      73.112      24.261
  H       -3.363      74.341      24.141
  H       -6.192      75.007      23.112
  H       -5.782      77.310      23.608
  H       -4.346      76.792      25.996
  H       -6.470      76.249      27.078
  H       -4.439      67.615      22.856
  H       -5.973      68.447      23.135
  H       -6.717      77.590      25.928
  P       -3.648      78.771      23.519
  C       -3.805      79.107      20.953
  O       -4.466      79.204      22.207
  O       -2.121      79.038      23.121
  O       -4.021      79.503      24.768
  H       -1.743      79.732      23.694
  H       -4.467      79.426      20.175
  H       -3.515      78.092      20.780
  H       -2.935      79.730      20.959

 6  7  8  9  10  11  12  13  14  15  25  28  32  33  34  35 0
 6-311+G(2d,p)
 ****
 36  39  40 0
 6-311+G(2d,p)
 ****
 1  2  3  4  5  16  17  18  19  20  21  22  23  24 0
 3-21G
 ****
 26  27  29  30  31  37  38  41  42  43  44  45  46  47 0
 3-21G
 ****
 48 0
 3-21G
 ****


