%nproc=1
%NoSave
%Mem=1900MB
#P OB98/GEN NMR

erre ene a

0 1
  C      327.295     -34.661    -895.310
  O      327.839     -35.551    -896.270
  H      327.794     -34.791    -894.350
  H      327.456     -33.636    -895.650
  H      326.224     -34.833    -895.200
  P      327.705     -37.121    -895.950
  C      329.986     -37.167    -894.710
  O      329.205     -37.668    -895.790
  C      331.331     -37.896    -894.670
  O      331.137     -39.292    -894.340
  C      332.087     -37.878    -896.000
  O      332.791     -36.671    -896.200
  C      333.043     -39.040    -895.780
  O      334.126     -38.625    -894.920
  C      332.146     -40.054    -895.050
  N      332.868     -43.458    -898.810
  C      333.719     -42.652    -898.130
  N      333.460     -41.777    -897.160
  C      332.140     -41.762    -896.880
  C      331.147     -42.510    -897.480
  C      331.556     -43.408    -898.490
  N      330.683     -44.212    -899.190
  N      329.908     -42.202    -896.950
  C      330.153     -41.299    -896.020
  N      331.491     -40.989    -895.950
  O      327.250     -37.737    -897.360
  O      326.779     -37.483    -894.840
  H      334.576     -37.894    -895.370
  H      326.825     -38.611    -897.220
  H      334.771     -42.734    -898.430
  H      329.413     -40.841    -895.380
  H      332.694     -40.644    -894.300
  H      333.492     -39.407    -896.700
  H      331.423     -38.107    -896.840
  H      331.936     -37.437    -893.870
  H      329.454     -37.338    -893.770
  H      331.053     -44.665    -900.000
  H      329.691     -44.062    -899.060
  H      330.132     -36.088    -894.840
  P      332.712     -36.014    -897.670
  C      334.816     -37.256    -898.550
  O      334.219     -35.999    -898.220
  O      332.421     -34.469    -897.350
  O      331.686     -36.611    -898.560
  H      331.955     -34.042    -898.100
  H      335.814     -37.096    -898.901
  H      334.241     -37.734    -899.316
  H      334.839     -37.879    -897.680

 6  7  8  9  10  11  12  13  14  15  25  28  32  33  34  35 0
 6-311+G(2d,p)
 ****
 36  39  40 0
 6-311+G(2d,p)
 ****
 1  2  3  4  5  16  17  18  19  20  21  22  23  24 0
 3-21G
 ****
 26  27  29  30  31  37  38  41  42  43  44  45  46  47 0
 3-21G
 ****
 48 0
 3-21G
 ****


