%nproc=1
%NoSave
%Mem=1900MB
#P OB98/GEN NMR

erre ene a

0 1
  C       26.978      29.586      22.504
  O       26.929      30.995      22.681
  P       26.349      31.874      21.468
  C       24.775      33.930      21.315
  O       25.547      33.081      22.156
  C       24.558      35.284      21.977
  O       23.679      35.139      23.108
  C       25.821      35.931      22.525
  O       26.566      36.584      21.508
  C       25.235      36.936      23.505
  O       24.818      38.118      22.797
  C       24.012      36.184      24.057
  N       24.831      37.046      28.978
  C       24.624      37.939      27.945
  N       24.607      39.248      28.277
  N       24.453      37.582      26.700
  C       24.454      36.240      26.524
  C       24.650      35.255      27.466
  C       24.890      35.666      28.832
  O       25.143      34.923      29.777
  N       24.566      34.006      26.907
  C       24.283      34.232      25.640
  N       24.236      35.573      25.352
  O       25.185      30.949      20.877
  O       27.344      32.250      20.425
  H       24.337      37.820      22.002
  H       25.031      31.169      19.937
  H       24.940      37.375      29.921
  H       24.108      33.460      24.903
  H       23.139      36.842      24.128
  H       25.951      37.257      24.268
  H       24.602      39.576      29.230
  H       26.434      35.203      23.067
  H       24.421      39.915      27.539
  H       24.069      35.946      21.251
  H       23.802      33.465      21.130
  H       25.295      34.048      20.359
  P       28.138      36.774      21.779
  C       30.281      35.964      20.554
  O       28.868      35.958      20.610
  O       28.394      35.890      23.087
  O       28.564      38.191      21.962
  H       29.169      36.228      23.576
  H       30.721      35.958      21.555
  H       30.619      36.851      20.012
  H       30.617      35.072      20.020
  H       27.383      29.130      23.383
  H       27.598      29.353      21.664
  H       25.990      29.214      22.332

 3  4  5  6  7  8  9  10  11  12  23  26  30  31  33  0
 6-311+G(2d,p)
 ****
 35  36  37  38 0
 6-311+G(2d,p)
 ****
 1  2  13  14  15  16  17  18  19  20  21  22  24  25  27  28  29 0
 3-21G
 ****
 32  34  39  40  41  42  43  44  45  46  47  48  49 0
 3-21G
 ****


