%nproc=1
%NoSave
%Mem=1900MB
#P OB98/GEN NMR

erre ene a

0 1
  C       78.214      73.700     -50.752
  O       77.672      72.415     -50.996
  P       77.124      71.999     -52.441
  C       75.061      72.614     -53.852
  O       75.678      72.688     -52.576
  C       73.989      73.694     -54.019
  O       74.603      75.009     -53.891
  C       73.247      73.660     -55.362
  O       71.907      74.087     -55.094
  C       73.989      74.712     -56.173
  O       73.238      75.178     -57.285
  C       74.285      75.757     -55.083
  N       75.362      76.659     -55.474
  C       75.101      77.522     -56.545
  O       74.035      77.440     -57.161
  N       76.069      78.413     -56.932
  C       77.236      78.374     -56.359
  N       78.158      79.284     -56.778
  C       77.594      77.398     -55.314
  C       76.613      76.587     -54.915
  O       77.150      70.535     -52.732
  O       78.013      72.865     -53.450
  H       72.504      75.737     -56.951
  H       78.914      72.463     -53.548
  H       78.594      77.365     -54.909
  H       76.780      75.840     -54.150
  H       73.385      76.355     -54.868
  H       74.925      74.290     -56.555
  H       73.255      72.679     -55.842
  H       73.271      73.589     -53.193
  H       77.863      79.946     -57.486
  H       74.584      71.634     -53.942
  H       79.064      79.390     -56.347
  H       75.816      72.692     -54.638
  P       70.657      73.416     -55.837
  C       69.703      73.382     -58.216
  O       70.665      73.952     -57.346
  O       69.346      73.559     -55.129
  O       71.067      71.874     -55.998
  H       70.272      71.345     -56.207
  H       69.613      74.009     -59.109
  H       68.726      73.316     -57.729
  H       70.030      72.380     -58.513
  H       78.519      73.770     -49.729
  H       77.473      74.444     -50.955
  H       79.060      73.857     -51.388

 3  4  5  6  7  8  9  10  11  12  13  23  27  28  29  30  32 0
 6-311+G(2d,p)
 ****
 34  35 0
 6-311+G(2d,p)
 ****
 1  2  14  15  16  17  18  19  20  21  22  24  25  26 0
 3-21G
 ****
 31  33  36  37  38  39  40  41  42  43  44  45  46 0
 3-21G
 ****


