%nproc=1
%NoSave
%Mem=1900MB
#P OB98/GEN NMR

erre ene a

0 1
  C        3.480      57.581     119.146
  O        3.358      57.774     120.541
  H        4.503      57.825     118.847
  H        2.789      58.237     118.610
  H        3.275      56.538     118.893
  P        1.890      57.576     121.165
  C       -0.304      58.912     120.706
  O        1.116      58.919     120.738
  C       -0.831      60.342     120.643
  O       -0.509      61.058     121.856
  C       -0.245      61.184     119.512
  O       -0.813      60.899     118.246
  C       -0.620      62.572     120.001
  O       -2.027      62.795     119.789
  C       -0.292      62.452     121.504
  N        1.079      62.857     121.826
  C        1.235      64.090     122.468
  O        0.259      64.787     122.738
  N        2.506      64.527     122.759
  C        3.530      63.790     122.458
  N        4.762      64.277     122.770
  C        3.412      62.480     121.794
  C        2.173      62.079     121.512
  O        2.121      57.789     122.734
  O        1.191      56.308     120.809
  H       -2.189      62.655     118.838
  H        1.251      57.835     123.200
  H        4.295      61.907     121.551
  H        2.007      61.125     121.023
  H       -0.984      63.054     122.106
  H       -0.091      63.371     119.481
  H        0.848      61.105     119.477
  H       -1.925      60.291     120.574
  H        4.814      65.205     123.170
  H       -0.665      58.417     121.615
  H        5.619      63.851     122.444
  H       -0.658      58.357     119.833
  P        0.192      60.790     116.996
  C        2.046      62.322     115.995
  O        0.924      62.210     116.864
  O       -0.793      60.762     115.739
  O        1.103      59.602     117.023
  H       -0.434      60.200     115.025
  H        2.417      63.325     116.019
  H        1.750      62.075     114.997
  H        2.814      61.650     116.316

 6  7  8  9  10  11  12  13  14  15  16  26  30  31  32  33  35 0
 6-311+G(2d,p)
 ****
 37  38 0
 6-311+G(2d,p)
 ****
 1  2  3  4  5  17  18  19  20  21  22  23  24  25 0
 3-21G
 ****
 27  28  29  34  36  39  40  41  42  43  44  45  46 0
 3-21G
 ****


