%nproc=1
%NoSave
%Mem=1900MB
#P OB98/GEN NMR

erre ene a

0 1
  C       73.774    -101.319    -638.529
  O       74.042    -100.849    -639.837
  P       74.342    -101.876    -641.035
  C       76.289    -103.317    -641.837
  O       75.867    -102.347    -640.897
  C       77.796    -103.583    -641.725
  O       78.529    -102.362    -642.050
  C       78.257    -104.038    -640.323
  O       79.342    -104.945    -640.526
  C       78.783    -102.746    -639.715
  O       79.682    -102.962    -638.631
  C       79.418    -102.096    -640.939
  N       82.814     -98.270    -640.918
  C       82.966     -99.605    -641.033
  N       82.005    -100.571    -640.999
  C       80.804    -100.021    -640.835
  C       80.484     -98.679    -640.668
  C       81.569     -97.766    -640.734
  N       81.422     -96.399    -640.643
  N       79.125     -98.519    -640.464
  C       78.639     -99.734    -640.511
  N       79.585    -100.671    -640.794
  O       73.952    -101.385    -642.395
  O       73.506    -103.187    -640.635
  H       80.509    -103.352    -638.979
  H       72.715    -103.273    -641.193
  H       83.991     -99.953    -641.169
  H       77.593    -100.000    -640.335
  H       80.394    -102.543    -641.187
  H       77.946    -102.140    -639.341
  H       77.470    -104.493    -639.726
  H       78.071    -104.331    -642.477
  H       76.073    -102.921    -642.840
  H       82.234     -95.846    -640.824
  H       80.498     -95.996    -640.778
  H       75.727    -104.251    -641.700
  P       79.221    -106.472    -640.015
  C       79.990    -107.559    -637.832
  O       79.387    -106.423    -638.433
  O       80.089    -107.451    -640.720
  O       77.664    -106.801    -640.206
  H       77.531    -107.768    -640.189
  H       79.253    -108.351    -637.733
  H       80.380    -107.289    -636.848
  H       80.829    -107.936    -638.451
  H       73.601    -100.487    -637.879
  H       74.612    -101.881    -638.173
  H       72.906    -101.945    -638.546

 3  4  5  6  7  8  9  10  11  12  22  25  29  30  31  32 0
 6-311+G(2d,p)
 ****
 33  36  37 0
 6-311+G(2d,p)
 ****
 1  2  13  14  15  16  17  18  19  20  21  23  24  26 0
 3-21G
 ****
 27  28  34  35  38  39  40  41  42  43  44  45  46  47  48 0
 3-21G
 ****


