%nproc=1
%NoSave
%Mem=1900MB
#P OB98/GEN NMR

erre ene a

0 1
  C      -61.647      -5.020     -82.887
  O      -61.502      -4.102     -81.821
  P      -62.365      -2.755     -81.804
  C      -60.289      -1.681     -82.872
  O      -61.712      -1.742     -82.860
  C      -59.765      -1.786     -84.301
  O      -60.504      -2.784     -85.036
  C      -59.901      -0.501     -85.108
  O      -58.908       0.435     -84.737
  C      -59.777      -1.031     -86.531
  O      -58.397      -1.219     -86.884
  C      -60.493      -2.386     -86.426
  N      -63.753      -4.555     -89.693
  C      -62.424      -4.705     -89.516
  N      -61.616      -4.059     -88.647
  C      -62.316      -3.164     -87.931
  C      -63.668      -2.875     -88.025
  C      -64.409      -3.638     -88.943
  N      -65.775      -3.539     -89.090
  N      -64.008      -1.868     -87.142
  C      -62.882      -1.552     -86.537
  N      -61.848      -2.351     -86.935
  O      -62.625      -2.179     -80.452
  O      -63.738      -3.176     -82.513
  H      -58.374      -1.539     -87.805
  H      -64.477      -3.045     -81.889
  H      -61.945      -5.446     -90.149
  H      -62.769      -0.769     -85.798
  H      -59.959      -3.172     -86.974
  H      -60.213      -0.355     -87.272
  H      -60.902      -0.077     -84.969
  H      -58.715      -2.106     -84.258
  H      -59.905      -2.513     -82.274
  H      -66.224      -4.231     -89.669
  H      -66.308      -3.096     -88.345
  H      -59.964      -0.740     -82.417
  P      -59.326       1.779     -83.973
  C      -58.851       3.174     -86.071
  O      -59.807       2.821     -85.091
  O      -58.326       2.305     -82.997
  O      -60.696       1.385     -83.243
  H      -60.774       1.882     -82.408
  H      -58.147       3.898     -85.654
  H      -59.369       3.628     -86.919
  H      -58.305       2.291     -86.419
  H      -60.996      -5.855     -82.730
  H      -61.394      -4.539     -83.809
  H      -62.660      -5.361     -82.929

 3  4  5  6  7  8  9  10  11  12  22  25  29  30  31  32 0
 6-311+G(2d,p)
 ****
 33  36  37 0
 6-311+G(2d,p)
 ****
 1  2  13  14  15  16  17  18  19  20  21  23  24  26 0
 3-21G
 ****
 27  28  34  35  38  39  40  41  42  43  44  45  46  47  48 0
 3-21G
 ****


