%nproc=1
%NoSave
%Mem=1900MB
#P OB98/GEN NMR

erre ene a

0 1
  C      -63.590     -36.927      14.171
  O      -63.898     -37.218      15.518
  H      -62.565     -37.246      13.968
  H      -63.667     -35.853      13.984
  H      -64.267     -37.470      13.506
  P      -65.330     -36.733      16.055
  C      -67.198     -37.774      17.532
  O      -65.866     -37.875      17.044
  C      -67.883     -39.133      17.429
  O      -68.003     -39.517      16.039
  C      -67.118     -40.266      18.097
  O      -67.286     -40.288      19.505
  C      -67.743     -41.474      17.421
  O      -68.960     -41.872      18.068
  C      -68.014     -40.958      15.995
  N      -67.046     -41.486      15.037
  C      -67.537     -42.436      14.146
  O      -68.705     -42.821      14.143
  N      -66.625     -42.964      13.274
  C      -65.291     -42.679      13.242
  O      -64.517     -43.230      12.470
  C      -64.826     -41.681      14.218
  C      -65.710     -41.141      15.062
  O      -66.269     -36.871      14.767
  O      -65.354     -35.352      16.621
  H      -66.469     -35.987      14.410
  H      -69.213     -42.726      17.662
  H      -66.961     -43.652      12.618
  H      -63.773     -41.432      14.222
  H      -65.390     -40.411      15.798
  H      -69.017     -41.255      15.664
  H      -67.070     -42.327      17.446
  H      -66.056     -40.217      17.826
  H      -68.893     -39.047      17.852
  H      -67.756     -37.049      16.931
  H      -67.172     -37.424      18.568
  P      -66.036     -40.751      20.399
  C      -65.215     -40.116      22.817
  O      -66.177     -39.961      21.786
  O      -64.839     -40.019      19.633
  O      -65.909     -42.232      20.507
  H      -65.142     -39.218      19.170
  H      -65.488     -39.508      23.654
  H      -64.254     -39.815      22.456
  H      -65.177     -41.142      23.118

 6  7  8  9  10  11  12  13  14  15  16  27  31  32  33  34  35 0
 6-311+G(2d,p)
 ****
 36  37 0
 6-311+G(2d,p)
 ****
 1  2  3  4  5  17  18  19  20  21  22  23  24  25 0
 3-21G
 ****
 26  28  29  30  38  39  40  41  42  43  44  45 0
 3-21G
 ****


