%nproc=1
%NoSave
%Mem=1900MB
#P OB98/GEN NMR

erre ene a

0 1
  C      397.817     557.664    -207.603
  O      396.394     557.600    -207.742
  P      395.456     558.007    -206.504
  C      393.662     556.248    -207.165
  O      393.932     557.620    -206.849
  C      392.151     556.058    -207.387
  O      391.401     556.310    -206.174
  C      391.575     557.024    -208.413
  O      391.958     556.827    -209.762
  C      390.095     556.966    -208.102
  O      389.456     555.861    -208.724
  C      390.105     556.810    -206.566
  N      389.777     558.049    -205.855
  C      388.425     558.287    -205.631
  O      387.535     557.543    -206.029
  N      388.125     559.447    -204.956
  C      389.030     560.376    -204.531
  O      388.707     561.403    -203.941
  C      390.441     560.078    -204.808
  C      390.750     558.946    -205.455
  O      395.655     559.387    -205.975
  O      395.846     556.912    -205.395
  H      388.487     556.006    -208.671
  H      395.882     557.362    -204.529
  H      387.150     559.629    -204.777
  H      391.183     560.805    -204.489
  H      391.777     558.707    -205.680
  H      389.372     556.052    -206.256
  H      389.575     557.872    -208.462
  H      391.921     558.037    -208.154
  H      391.979     555.011    -207.679
  H      394.011     555.608    -206.355
  H      394.236     555.972    -208.058
  P      393.300     557.451    -210.392
  C      392.692     557.311    -212.918
  O      393.501     556.829    -211.856
  O      394.499     557.545    -209.511
  O      392.802     558.945    -210.740
  H      393.563     559.552    -210.636
  H      392.956     556.767    -213.834
  H      392.874     558.374    -213.067
  H      391.636     557.135    -212.697
  H      398.279     557.360    -208.519
  H      398.128     557.012    -206.813
  H      398.108     558.668    -207.373

 3  4  5  6  7  8  9  10  11  12  13  23  28  29  30  31  32 0
 6-311+G(2d,p)
 ****
 33  34 0
 6-311+G(2d,p)
 ****
 1  2  14  15  16  17  18  19  20  21  22  24  25  26  27 0
 3-21G
 ****
 35  36  37  38  39  40  41  42  43  44  45 0
 3-21G
 ****


