%nproc=1
%NoSave
%Mem=1900MB
#P OB98/GEN NMR

erre ene a

0 1
  C     -112.028    -319.487     212.149
  O     -112.372    -320.851     211.879
  P     -112.040    -321.550     210.472
  C     -110.012    -322.957     211.190
  O     -111.352    -322.989     210.700
  C     -109.270    -324.290     211.003
  O     -109.868    -325.339     211.818
  C     -109.240    -324.816     209.559
  O     -108.006    -325.532     209.429
  C     -110.421    -325.777     209.546
  O     -110.376    -326.719     208.483
  C     -110.291    -326.397     210.939
  N     -113.277    -330.563     210.792
  C     -112.006    -330.350     210.374
  N     -111.265    -329.232     210.487
  C     -111.946    -328.263     211.127
  C     -113.247    -328.333     211.619
  C     -113.928    -329.553     211.413
  N     -115.237    -329.755     211.789
  N     -113.620    -327.129     212.191
  C     -112.568    -326.344     212.045
  N     -111.529    -326.988     211.414
  O     -111.304    -320.669     209.512
  O     -113.479    -321.922     209.867
  H     -109.586    -327.283     208.611
  H     -113.512    -321.663     208.927
  H     -111.525    -331.199     209.890
  H     -112.511    -325.312     212.351
  H     -109.515    -327.180     210.951
  H     -111.354    -325.200     209.447
  H     -109.317    -324.036     208.806
  H     -108.245    -324.151     211.381
  H     -110.037    -322.700     212.261
  H     -115.672    -330.624     211.523
  H     -115.778    -328.974     212.146
  H     -109.466    -322.161     210.672
  P     -106.778    -324.942     208.584
  C     -105.785    -323.084     210.045
  O     -105.685    -324.448     209.651
  O     -107.153    -323.937     207.545
  O     -106.088    -326.235     207.927
  H     -105.534    -325.957     207.166
  H     -105.394    -322.440     209.253
  H     -105.198    -322.938     210.956
  H     -106.828    -322.816     210.252
  H     -112.340    -319.230     213.140
  H     -112.519    -318.849     211.444
  H     -110.969    -319.363     212.065

 3  4  5  6  7  8  9  10  11  12  22  25  29  30  31  32 0
 6-311+G(2d,p)
 ****
 33  36  37 0
 6-311+G(2d,p)
 ****
 1  2  13  14  15  16  17  18  19  20  21  23  24  26 0
 3-21G
 ****
 27  28  34  35  38  39  40  41  42  43  44  45  46  47  48 0
 3-21G
 ****


