%nproc=1
%NoSave
%Mem=1900MB
#P OB98/GEN NMR

erre ene a

0 1
  C      276.836    -693.484     657.021
  O      276.374    -692.907     658.242
  P      274.811    -692.769     658.577
  C      274.378    -690.402     657.668
  O      274.081    -691.777     657.519
  C      273.658    -689.499     656.647
  O      273.814    -688.092     656.984
  C      274.143    -689.672     655.189
  O      272.995    -689.417     654.360
  C      275.157    -688.538     655.068
  O      275.458    -688.204     653.711
  C      274.458    -687.443     655.863
  N      275.738    -682.504     655.494
  C      274.659    -683.180     655.042
  N      274.381    -684.492     655.206
  C      275.318    -685.091     655.956
  C      276.463    -684.519     656.476
  C      276.672    -683.152     656.218
  N      277.790    -682.482     656.637
  N      277.195    -685.466     657.176
  C      276.518    -686.581     657.048
  N      275.369    -686.408     656.330
  O      274.509    -692.444     660.015
  O      274.193    -694.209     658.207
  H      276.291    -687.709     653.714
  H      273.596    -694.496     658.919
  H      273.947    -682.592     654.471
  H      276.828    -687.562     657.447
  H      273.678    -686.956     655.267
  H      276.095    -688.854     655.542
  H      274.560    -690.658     654.990
  H      272.586    -689.715     656.717
  H      275.474    -690.241     657.593
  H      277.888    -681.522     656.304
  H      278.551    -682.984     657.060
  H      274.085    -690.087     658.701
  P      272.141    -690.626     653.756
  C      274.042    -691.584     652.331
  O      273.172    -691.804     653.424
  O      271.264    -690.225     652.598
  O      271.281    -691.197     654.975
  H      270.529    -691.714     654.642
  H      273.495    -691.726     651.379
  H      274.867    -692.313     652.377
  H      274.467    -690.579     652.356
  H      277.906    -693.476     657.005
  H      276.463    -692.916     656.195
  H      276.485    -694.492     656.948

 3  4  5  6  7  8  9  10  11  12  22  25  29  30  31  32 0
 6-311+G(2d,p)
 ****
 33  36  37 0
 6-311+G(2d,p)
 ****
 1  2  13  14  15  16  17  18  19  20  21  23  24  26 0
 3-21G
 ****
 27  28  34  35  38  39  40  41  42  43  44  45  46  47  48 0
 3-21G
 ****


