%nproc=1
%NoSave
%Mem=1900MB
#P OB98/GEN NMR

erre ene a

0 1
  C      334.942    -241.634    -405.872
  O      335.780    -240.470    -405.890
  P      335.523    -239.373    -407.026
  C      335.065    -237.070    -405.905
  O      336.019    -237.954    -406.474
  C      335.699    -235.707    -405.631
  O      336.366    -235.673    -404.345
  C      336.754    -235.305    -406.653
  O      336.171    -234.733    -407.813
  C      337.515    -234.238    -405.881
  O      336.799    -232.990    -405.930
  C      337.519    -234.804    -404.458
  N      341.673    -234.903    -401.568
  C      340.640    -233.986    -401.615
  N      340.721    -232.942    -400.758
  N      339.616    -234.081    -402.427
  C      339.659    -235.181    -403.209
  C      340.625    -236.159    -403.261
  C      341.754    -236.034    -402.369
  O      342.707    -236.811    -402.295
  N      340.318    -237.116    -404.192
  C      339.163    -236.729    -404.693
  N      338.725    -235.553    -404.141
  O      333.924    -239.216    -407.016
  O      336.028    -239.757    -408.379
  H      336.739    -232.737    -406.871
  H      333.612    -238.938    -407.898
  H      342.434    -234.777    -400.928
  H      338.605    -237.267    -405.452
  H      337.420    -234.021    -403.694
  H      338.512    -234.045    -406.305
  H      341.458    -232.836    -400.073
  H      337.415    -236.147    -406.896
  H      339.958    -232.280    -400.751
  H      334.898    -234.952    -405.623
  H      334.664    -237.489    -404.979
  H      334.212    -236.984    -406.587
  P      335.711    -235.724    -408.989
  C      334.079    -233.857    -409.755
  O      335.062    -234.800    -410.122
  O      334.458    -236.482    -408.340
  O      336.763    -236.681    -409.443
  H      334.399    -237.390    -408.697
  H      333.871    -233.216    -410.617
  H      334.425    -233.233    -408.926
  H      333.154    -234.370    -409.471
  H      335.232    -242.270    -405.062
  H      335.046    -242.163    -406.796
  H      333.922    -241.337    -405.744

 3  4  5  6  7  8  9  10  11  12  23  26  30  31 0
 6-311+G(2d,p)
 ****
 33  35  36  37  38 0
 6-311+G(2d,p)
 ****
 1  2  13  14  15  16  17  18  19  20  21  22  24  25 0
 3-21G
 ****
 27  28  29  32  34  39  40  41  42  43  44  45  46  47  48  49 0
 3-21G
 ****


