%nproc=1
%NoSave
%Mem=1900MB
#P OB98/GEN NMR

erre ene a

0 1
  C       34.560    -490.375    -723.155
  O       34.994    -491.259    -724.176
  H       33.637    -490.759    -722.722
  H       34.360    -489.381    -723.560
  H       35.318    -490.306    -722.367
  P       36.248    -490.825    -725.068
  C       35.299    -490.639    -727.477
  O       35.982    -491.457    -726.526
  C       35.294    -491.321    -728.842
  O       36.639    -491.444    -729.357
  C       34.741    -492.742    -728.802
  O       33.339    -492.738    -728.688
  C       35.299    -493.304    -730.087
  O       34.510    -492.904    -731.213
  C       36.708    -492.654    -730.130
  N       37.744    -493.546    -729.627
  C       38.241    -494.494    -730.544
  O       37.792    -494.543    -731.688
  N       39.210    -495.369    -730.107
  C       39.667    -495.291    -728.895
  N       40.618    -496.195    -728.545
  C       39.183    -494.300    -727.904
  C       38.241    -493.463    -728.337
  O       37.611    -491.113    -724.515
  O       36.023    -489.256    -725.305
  H       34.994    -493.242    -732.013
  H       36.445    -488.737    -724.602
  H       39.604    -494.272    -726.913
  H       37.830    -492.711    -727.677
  H       36.960    -492.373    -731.160
  H       35.320    -494.397    -730.075
  H       35.196    -493.302    -727.959
  H       34.711    -490.691    -729.537
  H       40.911    -496.872    -729.228
  H       35.850    -489.690    -727.533
  H       41.102    -496.184    -727.652
  H       34.281    -490.428    -727.152
  P       32.604    -493.441    -727.443
  C       31.218    -494.987    -728.988
  O       31.187    -493.946    -727.997
  O       32.549    -492.630    -726.187
  O       33.422    -494.821    -727.271
  H       34.318    -494.653    -726.862
  H       30.218    -495.235    -729.276
  H       31.697    -495.853    -728.581
  H       31.762    -494.648    -729.845

 6  7  8  9  10  11  12  13  14  15  16  26  30  31  32  33  35 0
 6-311+G(2d,p)
 ****
 37  38 0
 6-311+G(2d,p)
 ****
 1  2  3  4  5  17  18  19  20  21  22  23  24  25 0
 3-21G
 ****
 27  28  29  34  36  39  40  41  42  43  44  45  46 0
 3-21G
 ****


