%nproc=1
%NoSave
%Mem=1900MB
#P OB98/GEN NMR

erre ene a

0 1
  C     -607.486       4.471    -344.130
  O     -608.659       3.760    -344.462
  P     -610.061       4.164    -343.790
  C     -611.574       4.733    -345.788
  O     -611.243       3.764    -344.798
  C     -612.647       4.191    -346.738
  O     -612.104       3.150    -347.588
  C     -613.820       3.543    -346.029
  O     -614.675       4.499    -345.416
  C     -614.451       2.753    -347.179
  O     -615.268       3.606    -347.988
  C     -613.200       2.290    -347.951
  N     -612.891       0.880    -347.719
  C     -613.658      -0.051    -348.420
  O     -614.597       0.322    -349.130
  N     -613.341      -1.375    -348.304
  C     -612.441      -1.754    -347.457
  N     -612.132      -3.079    -347.423
  C     -611.716      -0.817    -346.573
  C     -611.977       0.483    -346.770
  O     -610.136       5.561    -343.267
  O     -610.239       3.108    -342.600
  H     -610.461       3.588    -341.771
  H     -615.871       4.076    -347.384
  H     -611.017      -1.178    -345.834
  H     -611.481       1.256    -346.186
  H     -613.354       2.446    -349.030
  H     -615.094       1.942    -346.822
  H     -613.460       2.836    -345.254
  H     -612.985       5.016    -347.383
  H     -612.629      -3.690    -348.049
  H     -610.674       4.984    -346.359
  H     -611.246      -3.428    -347.057
  H     -611.928       5.641    -345.296
  P     -615.231       4.150    -343.959
  C     -615.664       6.673    -343.552
  O     -616.186       5.364    -343.508
  O     -613.942       4.323    -343.016
  O     -615.830       2.778    -343.832
  H     -613.960       3.644    -342.311
  H     -616.499       7.384    -343.568
  H     -615.055       6.834    -344.446
  H     -615.059       6.861    -342.667
  H     -606.657       4.064    -344.671
  H     -607.303       4.386    -343.079
  H     -607.609       5.502    -344.388

 3  4  5  6  7  8  9  10  11  12  13  24  27  28  29  30  32 0
 6-311+G(2d,p)
 ****
 34  35 0
 6-311+G(2d,p)
 ****
 1  2  14  15  16  17  18  19  20  21  22  23  25  26 0
 3-21G
 ****
 31  33  36  37  38  39  40  41  42  43  44  45  46 0
 3-21G
 ****


