%nproc=1
%NoSave
%Mem=1900MB
#P OB98/GEN NMR

erre ene a

0 1
  C      509.821     750.109     -38.478
  O      509.259     749.223     -39.419
  H      509.536     749.783     -37.474
  H      509.429     751.117     -38.645
  H      510.913     750.125     -38.543
  P      509.869     749.181     -40.898
  C      510.922     746.825     -40.848
  O      511.162     748.223     -40.876
  C      511.152     746.182     -42.217
  O      512.385     746.674     -42.780
  C      511.272     744.658     -42.138
  O      510.039     743.965     -42.200
  C      512.136     744.351     -43.359
  O      511.331     744.162     -44.536
  C      513.011     745.600     -43.504
  N      517.944     744.956     -44.687
  C      516.846     744.957     -45.524
  N      517.096     744.717     -46.829
  N      515.623     745.151     -45.107
  C      515.518     745.284     -43.767
  C      516.535     745.284     -42.825
  C      517.891     745.136     -43.308
  O      518.902     745.147     -42.611
  N      516.043     745.394     -41.555
  C      514.738     745.373     -41.711
  N      514.369     745.389     -43.035
  O      510.522     750.634     -41.075
  O      508.887     748.904     -41.993
  H      510.586     743.569     -44.302
  H      510.474     750.901     -42.011
  H      518.864     744.831     -45.065
  H      514.008     745.399     -40.907
  H      513.083     745.922     -44.549
  H      512.699     743.424     -43.216
  H      518.007     744.473     -47.190
  H      511.827     744.360     -41.243
  H      516.305     744.511     -47.445
  H      510.344     746.484     -42.895
  H      509.883     746.690     -40.539
  H      511.552     746.344     -40.088
  P      509.607     742.953     -41.047
  C      508.326     744.728     -39.588
  O      509.375     743.787     -39.703
  O      510.961     742.147     -40.748
  O      508.468     742.039     -41.377
  H      510.948     741.284     -41.206
  H      508.349     745.171     -38.614
  H      507.387     744.235     -39.734
  H      508.448     745.490     -40.329

 6  7  8  9  10  11  12  13  14  15  26  29  33  34 0
 6-311+G(2d,p)
 ****
 36  38  39  40  41 0
 6-311+G(2d,p)
 ****
 1  2  3  4  5  16  17  18  19  20  21  22  23  24  25 0
 3-21G
 ****
 27  28  30  31  32  35  37  42  43  44  45  46  47 0
 3-21G
 ****
 48  49 0
 3-21G
 ****


