%nproc=1
%NoSave
%Mem=1900MB
#P OB98/GEN NMR

erre ene a

0 1
  C       -7.285     -51.770     -70.367
  O       -7.414     -53.155     -70.607
  H       -6.249     -51.476     -70.558
  H       -7.519     -51.551     -69.322
  H       -7.938     -51.191     -71.024
  P       -8.880     -53.799     -70.677
  C       -8.075     -55.471     -72.473
  O       -8.678     -55.304     -71.196
  C       -6.593     -55.815     -72.311
  O       -6.476     -56.871     -71.309
  C       -5.938     -56.329     -73.610
  O       -4.574     -55.894     -73.636
  C       -6.001     -57.830     -73.406
  O       -5.087     -58.513     -74.226
  C       -5.718     -57.936     -71.910
  N       -6.085     -59.248     -71.387
  C       -5.229     -60.304     -71.682
  O       -4.208     -60.186     -72.358
  N       -5.623     -61.537     -71.235
  C       -6.813     -61.825     -70.636
  O       -7.148     -62.960     -70.328
  C       -7.704     -60.676     -70.397
  C       -7.302     -59.460     -70.770
  O       -9.905     -53.014     -71.426
  O       -9.285     -54.024     -69.144
  H       -4.180     -58.204     -74.045
  H      -10.255     -54.096     -69.056
  H       -5.008     -62.311     -71.433
  H       -8.661     -60.873     -69.938
  H       -7.939     -58.593     -70.628
  H       -4.657     -57.749     -71.699
  H       -7.004     -58.201     -73.642
  H       -6.455     -55.997     -74.514
  H       -6.060     -54.942     -71.919
  H       -8.182     -54.531     -73.026
  H       -8.590     -56.268     -73.018
  P       -4.033     -54.873     -74.749
  C       -2.148     -53.270     -74.062
  O       -2.467     -54.577     -74.530
  O       -4.866     -53.640     -74.905
  O       -4.059     -55.721     -76.108
  H       -4.455     -55.178     -76.817
  H       -1.088     -53.180     -73.951
  H       -2.621     -53.104     -73.117
  H       -2.496     -52.544     -74.767

 6  7  8  9  10  11  12  13  14  15  16  26  31  32  33  34  35 0
 6-311+G(2d,p)
 ****
 36  37 0
 6-311+G(2d,p)
 ****
 1  2  3  4  5  17  18  19  20  21  22  23  24  25 0
 3-21G
 ****
 27  28  29  30  38  39  40  41  42  43  44  45 0
 3-21G
 ****


