%nproc=1
%NoSave
%Mem=1900MB
#P OB98/GEN NMR

erre ene a

0 1
  C      399.701    -131.682    -385.931
  O      399.358    -132.395    -387.103
  H      400.363    -132.283    -385.301
  H      400.224    -130.767    -386.225
  H      398.801    -131.409    -385.373
  P      398.670    -133.832    -386.890
  C      401.021    -134.865    -387.221
  O      399.649    -134.905    -387.563
  C      401.795    -135.955    -387.976
  O      401.330    -137.258    -387.583
  C      401.623    -135.910    -389.491
  O      402.443    -134.886    -390.087
  C      402.095    -137.302    -389.867
  O      403.545    -137.332    -389.906
  C      401.569    -138.150    -388.710
  N      399.316    -141.596    -391.785
  C      400.587    -141.113    -391.750
  N      401.102    -140.191    -390.913
  C      400.187    -139.771    -390.031
  C      398.869    -140.172    -389.947
  C      398.432    -141.132    -390.883
  N      397.138    -141.616    -390.943
  N      398.223    -139.546    -388.903
  C      399.139    -138.765    -388.365
  N      400.342    -138.863    -389.007
  O      397.414    -133.793    -387.872
  O      398.261    -134.130    -385.488
  H      403.817    -136.794    -390.665
  H      396.668    -134.279    -387.460
  H      401.264    -141.509    -392.492
  H      398.975    -138.126    -387.497
  H      402.323    -138.879    -388.367
  H      401.754    -137.625    -390.851
  H      400.554    -135.779    -389.786
  H      402.853    -135.872    -387.693
  H      401.138    -135.033    -386.139
  H      396.939    -142.429    -391.490
  H      396.481    -141.275    -390.239
  H      401.426    -133.873    -387.460
  P      401.701    -133.725    -390.914
  C      400.986    -135.339    -392.816
  O      401.741    -134.195    -392.457
  O      402.748    -132.531    -390.841
  O      400.357    -133.325    -390.395
  H      402.278    -131.660    -390.961
  H      401.106    -135.532    -393.862
  H      399.952    -135.166    -392.602
  H      401.330    -136.183    -392.256

 6  7  8  9  10  11  12  13  14  15  25  28  32  33  34  35 0
 6-311+G(2d,p)
 ****
 36  39  40 0
 6-311+G(2d,p)
 ****
 1  2  3  4  5  16  17  18  19  20  21  22  23  24 0
 3-21G
 ****
 26  27  29  30  31  37  38  41  42  43  44  45  46  47  48 0
 3-21G
 ****


