%nproc=1
%NoSave
%Mem=1900MB
#P OB98/GEN NMR

erre ene a

0 1
  C      313.328     460.972    -493.700
  O      312.165     461.003    -494.508
  H      313.050     460.887    -492.644
  H      313.927     460.100    -493.977
  H      313.924     461.877    -493.860
  P      311.163     462.233    -494.272
  C      309.329     460.600    -493.426
  O      309.679     461.625    -494.350
  C      308.316     459.648    -494.060
  O      307.054     460.317    -494.235
  C      308.705     459.130    -495.442
  O      309.639     458.064    -495.362
  C      307.352     458.654    -495.954
  O      307.044     457.370    -495.381
  C      306.404     459.723    -495.398
  N      303.057     463.391    -496.638
  C      303.131     462.558    -495.573
  N      304.065     461.625    -495.305
  C      305.010     461.604    -496.262
  C      305.081     462.401    -497.390
  C      304.038     463.332    -497.567
  N      303.939     464.131    -498.698
  N      306.188     462.078    -498.148
  C      306.760     461.089    -497.498
  N      306.090     460.774    -496.349
  O      311.305     463.073    -495.631
  O      311.457     463.071    -493.074
  H      306.243     457.044    -495.836
  H      311.938     463.802    -495.496
  H      302.332     462.654    -494.844
  H      307.653     460.574    -497.820
  H      305.454     459.296    -495.049
  H      307.322     458.543    -497.042
  H      309.065     459.936    -496.091
  H      308.155     458.815    -493.360
  H      308.893     461.051    -492.532
  H      302.984     464.381    -498.935
  H      304.540     463.855    -499.463
  H      310.238     460.057    -493.147
  P      310.785     457.985    -496.482
  C      309.679     456.439    -498.239
  O      310.633     456.555    -497.190
  O      312.116     457.847    -495.617
  O      310.855     459.164    -497.405
  H      312.745     458.559    -495.850
  H      309.684     455.438    -498.617
  H      309.930     457.119    -499.026
  H      308.705     456.673    -497.863

 6  7  8  9  10  11  12  13  14  15  25  28  32  33  34  35 0
 6-311+G(2d,p)
 ****
 36  39  40 0
 6-311+G(2d,p)
 ****
 1  2  3  4  5  16  17  18  19  20  21  22  23  24 0
 3-21G
 ****
 26  27  29  30  31  37  38  41  42  43  44  45  46  47  48 0
 3-21G
 ****


