%nproc=1
%NoSave
%Mem=1900MB
#P OB98/GEN NMR

erre ene a

0 1
  C     -122.183     261.832    -189.102
  O     -123.540     262.227    -189.100
  H     -121.863     261.685    -190.136
  H     -122.060     260.891    -188.563
  H     -121.553     262.605    -188.649
  P     -124.224     262.639    -187.712
  C     -125.451     260.375    -187.548
  O     -124.539     261.275    -186.926
  C     -126.426     259.826    -186.511
  O     -125.761     258.866    -185.655
  C     -127.000     260.889    -185.577
  O     -127.992     261.655    -186.234
  C     -127.506     260.016    -184.442
  O     -128.766     259.411    -184.773
  C     -126.395     258.940    -184.355
  N     -125.412     259.219    -183.306
  C     -125.268     258.240    -182.327
  O     -125.914     257.195    -182.318
  N     -124.375     258.527    -181.328
  C     -123.705     259.707    -181.168
  O     -123.091     260.005    -180.147
  C     -123.842     260.673    -182.269
  C     -124.687     260.396    -183.266
  O     -125.371     263.591    -187.809
  O     -123.012     263.265    -186.866
  H     -123.069     264.240    -186.897
  H     -129.330     260.125    -185.131
  H     -124.295     257.846    -180.586
  H     -123.275     261.594    -182.213
  H     -124.828     261.104    -184.073
  H     -126.832     257.950    -184.158
  H     -127.658     260.579    -183.518
  H     -126.196     261.530    -185.200
  H     -127.232     259.302    -187.043
  H     -124.880     259.548    -187.983
  H     -125.985     260.901    -188.347
  P     -128.332     263.148    -185.761
  C     -130.460     262.606    -184.437
  O     -129.112     263.058    -184.364
  O     -128.999     264.002    -186.791
  O     -126.912     263.764    -185.341
  H     -126.778     264.607    -185.815
  H     -130.883     262.584    -183.454
  H     -130.484     261.622    -184.858
  H     -131.026     263.272    -185.054

 6  7  8  9  10  11  12  13  14  15  16  27  31  32  33  34  35 0
 6-311+G(2d,p)
 ****
 36  37 0
 6-311+G(2d,p)
 ****
 1  2  3  4  5  17  18  19  20  21  22  23  24  25 0
 3-21G
 ****
 26  28  29  30  38  39  40  41  42  43  44  45 0
 3-21G
 ****


