%nproc=1
%NoSave
%Mem=1900MB
#P OB98/GEN NMR

erre ene a

0 1
  C     -174.293     -58.076      78.920
  O     -173.064     -57.946      78.229
  H     -174.358     -57.285      79.672
  H     -174.341     -59.046      79.425
  H     -175.130     -57.972      78.224
  P     -172.787     -59.009      77.059
  C     -170.445     -57.905      76.974
  O     -171.188     -59.118      76.996
  C     -168.962     -58.188      76.732
  O     -168.372     -58.815      77.885
  C     -168.688     -59.129      75.564
  O     -168.738     -58.428      74.328
  C     -167.274     -59.583      75.893
  O     -166.330     -58.570      75.496
  C     -167.309     -59.694      77.429
  N     -166.882     -62.756      81.533
  C     -166.405     -61.516      81.284
  N     -166.522     -60.781      80.154
  C     -167.213     -61.450      79.218
  C     -167.758     -62.722      79.328
  C     -167.581     -63.381      80.553
  N     -168.075     -64.646      80.805
  N     -168.397     -63.083      78.160
  C     -168.286     -62.027      77.380
  N     -167.545     -61.026      77.960
  O     -173.484     -58.746      75.767
  O     -173.195     -60.379      77.787
  H     -165.447     -58.852      75.804
  H     -172.910     -60.368      78.718
  H     -165.862     -61.051      82.098
  H     -168.732     -61.928      76.396
  H     -166.375     -59.341      77.883
  H     -166.998     -60.500      75.366
  H     -169.355     -59.995      75.578
  H     -168.456     -57.225      76.588
  H     -170.571     -57.365      77.919
  H     -167.758     -65.110      81.644
  H     -168.484     -65.157      80.040
  H     -170.847     -57.288      76.164
  P     -169.313     -59.139      73.010
  C     -171.327     -57.567      72.703
  O     -170.077     -58.000      72.173
  O     -170.114     -60.373      73.254
  O     -168.020     -59.436      72.118
  H     -168.109     -60.297      71.664
  H     -171.742     -56.812      72.068
  H     -171.179     -57.166      73.684
  H     -171.999     -58.398      72.756

 6  7  8  9  10  11  12  13  14  15  25  28  32  33  34  35 0
 6-311+G(2d,p)
 ****
 36  39  40 0
 6-311+G(2d,p)
 ****
 1  2  3  4  5  16  17  18  19  20  21  22  23  24 0
 3-21G
 ****
 26  27  29  30  31  37  38  41  42  43  44  45  46  47 0
 3-21G
 ****
 48 0
 3-21G
 ****


