%nproc=1
%NoSave
%Mem=1900MB
#P OB98/GEN NMR

erre ene a

0 1
  C     -263.474      55.618    -296.600
  O     -262.391      54.684    -296.543
  P     -261.939      54.156    -295.100
  C     -261.916      51.645    -295.767
  O     -261.177      52.750    -295.277
  C     -260.992      50.567    -296.352
  O     -260.257      51.086    -297.498
  C     -259.951      50.043    -295.358
  O     -259.662      48.684    -295.685
  C     -258.730      50.890    -295.675
  O     -257.531      50.298    -295.179
  C     -258.849      50.974    -297.198
  N     -254.374      52.463    -298.987
  C     -254.764      51.240    -298.471
  N     -253.832      50.267    -298.463
  N     -255.961      51.003    -298.009
  C     -256.794      52.066    -298.113
  C     -256.526      53.327    -298.595
  C     -255.187      53.581    -299.088
  O     -254.781      54.651    -299.542
  N     -257.632      54.142    -298.511
  C     -258.559      53.373    -297.976
  N     -258.117      52.100    -297.748
  O     -263.328      53.736    -294.423
  O     -261.220      55.175    -294.278
  H     -256.779      50.843    -295.499
  H     -263.560      54.373    -293.725
  H     -253.431      52.596    -299.324
  H     -259.562      53.689    -297.727
  H     -258.465      50.070    -297.692
  H     -258.840      51.884    -295.221
  H     -252.907      50.369    -298.858
  H     -260.248      50.109    -294.306
  H     -254.106      49.347    -298.131
  H     -261.609      49.735    -296.714
  H     -262.620      51.973    -296.535
  H     -262.528      51.241    -294.954
  P     -260.266      47.555    -294.712
  C     -260.952      45.836    -296.541
  O     -260.075      46.159    -295.478
  O     -261.847      47.806    -294.786
  O     -259.756      47.598    -293.311
  H     -262.279      47.477    -293.980
  H     -260.429      45.986    -297.486
  H     -261.862      46.450    -296.522
  H     -261.234      44.785    -296.456
  H     -263.665      55.881    -297.619
  H     -263.216      56.497    -296.047
  H     -264.350      55.174    -296.176

 3  4  5  6  7  8  9  10  11  12  23  26  30  31 0
 6-311+G(2d,p)
 ****
 33  35  36  37  38 0
 6-311+G(2d,p)
 ****
 1  2  13  14  15  16  17  18  19  20  21  22  24  25 0
 3-21G
 ****
 27  28  29  32  34  39  40  41  42  43  44  45  46  47  48  49 0
 3-21G
 ****


