%nproc=1
%NoSave
%Mem=1900MB
#P OB98/GEN NMR

erre ene a

0 1
  C       26.702     -60.334     -86.636
  O       26.421     -61.355     -87.589
  P       26.864     -61.328     -89.121
  C       27.228     -63.907     -89.479
  O       26.489     -62.733     -89.785
  C       26.729     -64.551     -88.176
  O       25.323     -64.910     -88.341
  C       27.486     -65.837     -87.827
  O       27.803     -65.955     -86.445
  C       26.610     -66.919     -88.433
  O       26.843     -68.208     -87.885
  C       25.210     -66.346     -88.230
  N       21.421     -69.652     -89.112
  C       22.265     -69.559     -88.024
  N       22.095     -70.472     -87.044
  N       23.206     -68.660     -87.911
  C       23.322     -67.859     -88.992
  C       22.556     -67.863     -90.136
  C       21.484     -68.830     -90.229
  O       20.695     -68.942     -91.162
  N       22.965     -66.891     -91.014
  C       23.986     -66.315     -90.414
  N       24.237     -66.863     -89.176
  O       28.230     -60.797     -89.395
  O       25.807     -60.319     -89.804
  H       27.765     -68.456     -88.087
  H       26.285     -59.873     -90.532
  H       20.698     -70.350     -89.135
  H       24.567     -65.494     -90.816
  H       24.812     -66.575     -87.238
  H       26.848     -66.978     -89.502
  H       21.475     -71.263     -87.122
  H       28.467     -65.854     -88.315
  H       22.851     -70.537     -86.362
  H       26.798     -63.812     -87.370
  H       28.268     -63.586     -89.361
  H       27.192     -64.615     -90.308
  P       29.173     -66.421     -85.771
  C       29.123     -64.763     -83.815
  O       29.094     -66.125     -84.199
  O       30.265     -65.368     -86.279
  O       29.597     -67.812     -86.116
  H       30.954     -65.832     -86.795
  H       29.332     -64.704     -82.743
  H       28.151     -64.304     -84.013
  H       29.902     -64.222     -84.359
  H       26.290     -60.608     -85.687
  H       26.266     -59.413     -86.961
  H       27.761     -60.214     -86.543

 3  4  5  6  7  8  9  10  11  12  23  26  30  31 0
 6-311+G(2d,p)
 ****
 33  35  36  37  38 0
 6-311+G(2d,p)
 ****
 1  2  13  14  15  16  17  18  19  20  21  22  24  25 0
 3-21G
 ****
 27  28  29  32  34  39  40  41  42  43  44  45  46  47  48  49 0
 3-21G
 ****


