%nproc=1
%NoSave
%Mem=1900MB
#P OB98/GEN NMR

erre ene a

0 1
  C     -661.029     -55.559    -597.429
  O     -661.250     -56.079    -598.725
  P     -659.968     -56.389    -599.634
  C     -660.406     -58.949    -599.782
  O     -659.553     -57.914    -599.306
  C     -661.334     -59.453    -598.682
  O     -662.277     -58.397    -598.329
  C     -662.172     -60.640    -599.047
  O     -661.433     -61.861    -598.926
  C     -663.284     -60.569    -597.997
  O     -662.813     -61.134    -596.748
  C     -663.475     -59.045    -597.842
  N     -667.693     -56.225    -597.566
  C     -666.758     -56.534    -596.594
  N     -666.949     -55.978    -595.359
  N     -665.716     -57.295    -596.792
  C     -665.608     -57.750    -598.053
  C     -666.485     -57.533    -599.106
  C     -667.656     -56.719    -598.861
  O     -668.553     -56.478    -599.668
  N     -666.048     -58.162    -600.247
  C     -664.899     -58.710    -599.929
  N     -664.613     -58.525    -598.574
  O     -658.802     -55.537    -598.931
  O     -660.106     -56.041    -601.074
  H     -663.460     -60.887    -596.072
  H     -658.102     -55.316    -599.551
  H     -668.476     -55.631    -597.365
  H     -664.238     -59.248    -600.600
  H     -663.583     -58.760    -596.786
  H     -664.193     -61.115    -598.290
  H     -667.650     -55.269    -595.193
  H     -662.619     -60.534    -600.044
  H     -666.249     -56.143    -594.653
  H     -660.712     -59.647    -597.784
  H     -659.791     -59.781    -600.122
  H     -660.988     -58.564    -600.632
  P     -660.876     -62.515    -600.315
  C     -658.561     -63.297    -599.426
  O     -659.281     -62.346    -600.205
  O     -661.292     -61.396    -601.406
  O     -661.410     -63.855    -600.613
  H     -661.371     -61.825    -602.277
  H     -658.996     -64.305    -599.507
  H     -658.560     -62.991    -598.370
  H     -657.529     -63.352    -599.786
  H     -661.969     -55.403    -596.942
  H     -660.506     -54.628    -597.502
  H     -660.444     -56.253    -596.861

 3  4  5  6  7  8  9  10  11  12  23  26  30  31  33  0
 6-311+G(2d,p)
 ****
 35  36  37  38 0
 6-311+G(2d,p)
 ****
 1  2  13  14  15  16  17  18  19  20  21  22  24  25  27  28  29 0
 3-21G
 ****
 32  34  39  40  41  42  43  44  45  46  47  48  49 0
 3-21G
 ****


