%nproc=1
%NoSave
%Mem=1900MB
#P OB98/GEN NMR

erre ene a

0 1
  C      141.350    -290.114     160.471
  O      141.427    -290.447     159.103
  P      140.432    -289.772     158.043
  C      142.154    -287.867     157.897
  O      140.780    -288.205     158.036
  C      142.296    -286.542     157.151
  O      141.722    -286.628     155.821
  C      141.558    -285.381     157.801
  O      142.017    -284.943     159.061
  C      141.552    -284.363     156.674
  O      142.792    -283.664     156.596
  C      141.367    -285.276     155.434
  N      140.009    -285.202     154.900
  C      139.731    -284.105     154.096
  O      140.552    -283.229     153.827
  N      138.448    -284.022     153.621
  C      137.430    -284.886     153.905
  O      136.292    -284.725     153.483
  C      137.782    -286.018     154.775
  C      139.036    -286.127     155.228
  O      138.984    -290.086     158.240
  O      141.017    -290.255     156.634
  H      142.745    -283.066     155.825
  H      141.934    -289.982     156.456
  H      138.222    -283.226     153.046
  H      137.000    -286.728     155.011
  H      139.318    -286.950     155.872
  H      142.065    -284.983     154.637
  H      140.766    -283.613     156.808
  H      140.515    -285.686     157.960
  H      143.360    -286.327     157.027
  H      142.658    -288.653     157.322
  H      142.621    -287.818     158.885
  P      141.141    -284.053     160.062
  C      139.750    -286.107     160.817
  O      139.738    -284.795     160.300
  O      141.102    -282.582     159.796
  O      141.889    -284.306     161.461
  H      141.802    -283.512     162.015
  H      138.720    -286.470     160.871
  H      140.176    -286.115     161.828
  H      140.320    -286.772     160.166
  H      142.090    -290.664     161.014
  H      140.378    -290.360     160.844
  H      141.524    -289.065     160.593

 3  4  5  6  7  8  9  10  11  12  13  23  28  29  30  31  32 0
 6-311+G(2d,p)
 ****
 33  34 0
 6-311+G(2d,p)
 ****
 1  2  14  15  16  17  18  19  20  21  22  24  25  26  27 0
 3-21G
 ****
 35  36  37  38  39  40  41  42  43  44  45 0
 3-21G
 ****


