%nproc=1
%NoSave
%Mem=1900MB
#P OB98/GEN NMR

erre ene a

0 1
  C     -606.026    -326.194    -457.543
  O     -605.433    -325.231    -456.664
  P     -605.620    -323.655    -456.818
  C     -604.574    -323.539    -454.454
  O     -604.686    -322.917    -455.728
  C     -603.663    -322.733    -453.529
  O     -602.278    -322.855    -453.949
  C     -603.900    -321.214    -453.535
  O     -605.084    -320.868    -452.848
  C     -602.611    -320.702    -452.889
  O     -602.697    -320.742    -451.459
  C     -601.569    -321.726    -453.400
  N     -600.643    -321.145    -454.361
  C     -600.104    -319.894    -454.052
  O     -600.487    -319.285    -453.050
  N     -599.156    -319.360    -454.893
  C     -598.867    -319.969    -456.001
  N     -597.904    -319.397    -456.787
  C     -599.497    -321.222    -456.438
  C     -600.368    -321.763    -455.571
  O     -607.047    -323.198    -456.786
  O     -604.927    -323.288    -458.232
  H     -605.342    -322.471    -458.585
  H     -601.821    -320.469    -451.119
  H     -599.250    -321.687    -457.385
  H     -600.880    -322.689    -455.797
  H     -601.003    -322.119    -452.545
  H     -602.400    -319.668    -453.178
  H     -603.955    -320.863    -454.583
  H     -603.756    -323.121    -452.511
  H     -597.478    -318.541    -456.460
  H     -604.142    -324.540    -454.592
  H     -597.573    -319.809    -457.657
  H     -605.576    -323.647    -454.014
  P     -606.268    -320.202    -453.728
  C     -608.111    -321.627    -452.531
  O     -607.624    -320.346    -452.861
  O     -606.474    -321.255    -454.918
  O     -605.981    -318.837    -454.234
  H     -606.657    -320.770    -455.744
  H     -608.698    -321.557    -451.618
  H     -607.299    -322.333    -452.383
  H     -608.771    -321.977    -453.343
  H     -605.751    -327.180    -457.230
  H     -605.679    -326.027    -458.541
  H     -607.091    -326.095    -457.515

 3  4  5  6  7  8  9  10  11  12  13  24  27  28  29  30  32 0
 6-311+G(2d,p)
 ****
 34  35 0
 6-311+G(2d,p)
 ****
 1  2  14  15  16  17  18  19  20  21  22  23  25  26 0
 3-21G
 ****
 31  33  36  37  38  39  40  41  42  43  44  45  46 0
 3-21G
 ****


