%nproc=1
%NoSave
%Mem=1900MB
#P OB98/GEN NMR

erre ene a

0 1
  C      592.993     369.180     788.623
  O      593.516     369.103     787.288
  P      594.246     367.784     786.718
  C      596.577     368.362     787.644
  O      595.798     368.109     786.485
  C      598.063     368.038     787.402
  O      598.221     366.633     787.108
  C      598.702     368.772     786.247
  O      598.979     370.126     786.587
  C      599.929     367.909     785.988
  O      600.996     368.253     786.894
  C      599.396     366.496     786.279
  N      599.096     365.756     785.057
  C      600.195     365.192     784.399
  O      601.342     365.376     784.802
  N      599.958     364.448     783.258
  C      598.749     364.341     782.794
  N      598.584     363.588     781.677
  C      597.588     364.993     783.417
  C      597.836     365.670     784.536
  O      593.555     367.181     785.536
  O      594.257     366.751     787.947
  H      600.680     368.049     787.795
  H      594.206     365.842     787.594
  H      596.598     364.902     782.982
  H      597.025     366.178     785.063
  H      600.127     365.925     786.869
  H      600.330     368.025     784.976
  H      598.041     368.734     785.370
  H      598.601     368.243     788.345
  H      599.398     363.145     781.269
  H      596.199     367.745     788.462
  H      597.683     363.444     781.237
  H      596.472     369.415     787.919
  P      597.933     371.273     786.202
  C      599.591     372.336     784.552
  O      598.768     372.536     785.687
  O      596.890     371.573     787.226
  O      597.261     370.731     784.846
  H      596.339     371.045     784.800
  H      599.777     373.305     784.086
  H      599.120     371.671     783.833
  H      600.546     371.908     784.880
  H      592.555     370.144     788.780
  H      593.786     369.030     789.326
  H      592.248     368.424     788.758

 3  4  5  6  7  8  9  10  11  12  13  23  27  28  29  30  32 0
 6-311+G(2d,p)
 ****
 34  35 0
 6-311+G(2d,p)
 ****
 1  2  14  15  16  17  18  19  20  21  22  24  25  26 0
 3-21G
 ****
 31  33  36  37  38  39  40  41  42  43  44  45  46 0
 3-21G
 ****


