%nproc=1
%NoSave
%Mem=1900MB
#P OB98/GEN NMR

erre ene a

0 1
  C      522.205    1083.042     544.025
  O      522.362    1084.299     544.638
  P      522.384    1084.431     546.250
  C      523.508    1086.739     545.969
  O      522.401    1086.015     546.544
  C      523.393    1088.226     546.346
  O      523.397    1088.351     547.779
  C      524.514    1089.135     545.832
  O      524.356    1089.578     544.484
  C      524.367    1090.314     546.792
  O      523.260    1091.146     546.351
  C      524.019    1089.631     548.105
  N      526.743    1091.344     552.077
  C      525.608    1091.799     551.505
  N      524.941    1091.293     550.448
  C      525.571    1090.187     549.962
  C      526.734    1089.613     550.463
  C      527.340    1090.247     551.556
  N      528.516    1089.786     552.156
  N      527.071    1088.491     549.735
  C      526.124    1088.383     548.822
  N      525.194    1089.390     548.945
  O      523.466    1083.635     546.931
  O      520.896    1084.010     546.691
  H      522.453    1090.619     546.510
  H      520.890    1083.784     547.647
  H      525.144    1092.682     551.958
  H      526.073    1087.607     548.051
  H      523.287    1090.192     548.708
  H      525.266    1090.942     546.817
  H      525.486    1088.647     545.991
  H      522.398    1088.564     545.973
  H      523.473    1086.621     544.889
  H      528.785    1090.230     553.031
  H      528.848    1088.865     551.896
  H      524.445    1086.310     546.354
  P      525.717    1089.979     543.695
  C      524.271    1089.571     541.538
  O      525.245    1090.335     542.204
  O      526.829    1088.990     543.793
  O      526.051    1091.411     544.340
  H      525.420    1092.135     544.151
  H      523.975    1090.074     540.582
  H      523.399    1089.429     542.148
  H      524.705    1088.577     541.285
  H      522.216    1083.160     542.962
  H      521.273    1082.612     544.327
  H      523.007    1082.398     544.321

 3  4  5  6  7  8  9  10  11  12  22  25  29  30  31  32 0
 6-311+G(2d,p)
 ****
 33  36  37 0
 6-311+G(2d,p)
 ****
 1  2  13  14  15  16  17  18  19  20  21  23  24  26 0
 3-21G
 ****
 27  28  34  35  38  39  40  41  42  43  44  45  46  47  48 0
 3-21G
 ****


