%nproc=1
%NoSave
%Mem=1900MB
#P OB98/GEN NMR

erre ene a

0 1
  C      109.401    -257.900     -27.855
  O      108.882    -258.607     -26.746
  H      110.474    -257.759     -27.706
  H      108.928    -256.916     -27.942
  H      109.244    -258.469     -28.776
  P      107.303    -258.873     -26.678
  C      105.221    -257.457     -26.075
  O      106.617    -257.459     -26.357
  C      104.742    -256.038     -25.752
  O      105.009    -255.155     -26.863
  C      103.238    -255.933     -25.495
  O      102.917    -256.438     -24.209
  C      103.029    -254.439     -25.681
  O      103.455    -253.711     -24.519
  C      103.965    -254.150     -26.878
  N      103.274    -254.138     -28.167
  C      102.616    -252.946     -28.501
  O      102.628    -251.991     -27.720
  N      101.952    -252.882     -29.702
  C      101.978    -253.892     -30.516
  N      101.298    -253.762     -31.699
  C      102.690    -255.151     -30.218
  C      103.300    -255.209     -29.037
  O      106.857    -259.991     -25.789
  O      106.888    -259.137     -28.205
  H      103.509    -252.776     -24.790
  H      106.893    -260.092     -28.402
  H      102.692    -255.966     -30.930
  H      103.849    -256.097     -28.735
  H      104.465    -253.177     -26.749
  H      101.982    -254.186     -25.852
  H      102.677    -256.462     -26.276
  H      105.317    -255.669     -24.894
  H      100.845    -252.871     -31.862
  H      105.064    -258.109     -25.210
  H      101.387    -254.413     -32.461
  H      104.655    -257.862     -26.923
  P      101.423    -256.878     -23.833
  C       99.404    -255.599     -22.873
  O      100.604    -255.505     -23.626
  O      101.313    -257.853     -22.706
  O      100.827    -257.429     -25.210
  H      101.171    -258.339     -25.398
  H       98.951    -254.632     -22.802
  H       99.627    -255.961     -21.891
  H       98.731    -256.274     -23.358

 6  7  8  9  10  11  12  13  14  15  16  26  30  31  32  33  35 0
 6-311+G(2d,p)
 ****
 37  38 0
 6-311+G(2d,p)
 ****
 1  2  3  4  5  17  18  19  20  21  22  23  24  25 0
 3-21G
 ****
 27  28  29  34  36  39  40  41  42  43  44  45  46 0
 3-21G
 ****


