%nproc=1
%NoSave
%Mem=1900MB
#P OB98/GEN NMR

erre ene a

0 1
  C     -893.989     555.885     472.558
  O     -895.049     555.110     472.030
  H     -894.329     556.335     473.503
  H     -893.729     556.694     471.865
  H     -893.119     555.261     472.757
  P     -894.709     554.229     470.730
  C     -895.009     556.489     469.421
  O     -895.219     555.085     469.477
  C     -894.729     556.927     467.981
  O     -893.609     556.186     467.460
  C     -895.919     556.712     467.026
  O     -895.939     557.783     466.073
  C     -895.569     555.412     466.326
  O     -896.219     555.292     465.062
  C     -894.019     555.530     466.253
  N     -893.369     554.241     466.060
  C     -892.039     554.243     465.647
  O     -891.449     555.310     465.439
  N     -891.399     553.042     465.427
  C     -892.069     551.930     465.541
  N     -891.389     550.782     465.310
  C     -893.489     551.889     465.943
  C     -894.069     553.053     466.192
  O     -895.769     553.040     470.852
  O     -893.289     553.772     470.642
  H     -897.169     555.451     465.182
  H     -896.669     553.340     471.081
  H     -893.999     550.937     466.025
  H     -895.099     553.105     466.504
  H     -893.719     556.180     465.403
  H     -895.839     554.548     466.934
  H     -896.879     556.658     467.543
  H     -894.429     557.984     467.999
  H     -890.419     550.858     465.005
  H     -894.169     556.771     470.061
  H     -891.809     549.866     465.306
  H     -895.909     556.968     469.806
  P     -896.749     559.111     466.438
  C     -899.099     558.039     466.076
  O     -898.179     559.078     465.676
  O     -895.999     560.408     466.287
  O     -897.169     558.905     467.951
  H     -897.059     559.747     468.429
  H     -900.000     558.122     465.505
  H     -899.325     558.144     467.117
  H     -898.653     557.082     465.902

 6  7  8  9  10  11  12  13  14  15  16  26  30  31  32  33  35 0
 6-311+G(2d,p)
 ****
 37  38 0
 6-311+G(2d,p)
 ****
 1  2  3  4  5  17  18  19  20  21  22  23  24  25 0
 3-21G
 ****
 27  28  29  34  36  39  40  41  42  43  44  45  46 0
 3-21G
 ****


