%nproc=1
%NoSave
%Mem=1900MB
#P OB98/GEN NMR

erre ene a

0 1
  C      334.493    -257.923    -200.789
  O      334.680    -256.524    -200.827
  H      335.284    -258.401    -201.376
  H      333.524    -258.184    -201.219
  H      334.554    -258.284    -199.757
  P      333.620    -255.627    -200.024
  C      331.319    -254.555    -200.586
  O      332.469    -255.243    -201.079
  C      330.322    -254.313    -201.722
  O      330.947    -253.477    -202.734
  C      329.841    -255.601    -202.414
  O      328.452    -255.455    -202.748
  C      330.655    -255.620    -203.699
  O      330.031    -256.398    -204.716
  C      330.742    -254.131    -204.003
  N      331.819    -253.556    -208.891
  C      330.619    -253.807    -208.262
  N      329.533    -253.942    -209.052
  N      330.489    -253.936    -206.967
  C      331.653    -253.754    -206.294
  C      332.906    -253.509    -206.800
  C      333.039    -253.394    -208.236
  O      334.084    -253.187    -208.849
  N      333.834    -253.425    -205.787
  C      333.138    -253.621    -204.675
  N      331.816    -253.824    -204.939
  O      334.392    -254.237    -199.803
  O      333.127    -256.207    -198.737
  H      330.650    -256.456    -205.474
  H      334.096    -253.804    -198.979
  H      331.867    -253.473    -209.890
  H      333.554    -253.627    -203.674
  H      329.817    -253.736    -204.443
  H      331.649    -256.042    -203.500
  H      329.551    -253.827    -210.058
  H      329.981    -256.499    -201.812
  H      328.631    -254.120    -208.617
  H      329.475    -253.744    -201.321
  H      331.636    -253.598    -200.165
  H      330.850    -255.159    -199.801
  P      327.443    -256.586    -202.231
  C      326.472    -258.823    -203.123
  O      327.222    -257.653    -203.417
  O      326.033    -255.812    -202.157
  O      327.801    -257.166    -200.904
  H      325.785    -255.663    -201.233
  H      326.408    -259.435    -203.999
  H      325.488    -258.546    -202.808
  H      326.956    -259.370    -202.341

 6  7  8  9  10  11  12  13  14  15  26  29  33  34 0
 6-311+G(2d,p)
 ****
 36  38  39  40  41 0
 6-311+G(2d,p)
 ****
 1  2  3  4  5  16  17  18  19  20  21  22  23  24  25 0
 3-21G
 ****
 27  28  30  31  32  35  37  42  43  44  45  46  47 0
 3-21G
 ****
 48  49 0
 3-21G
 ****


