%nproc=1
%NoSave
%Mem=1900MB
#P OB98/GEN NMR

erre ene a

0 1
  C      -96.476     197.005    -897.260
  O      -97.381     196.999    -896.160
  P      -97.369     198.302    -895.210
  C      -99.939     197.897    -895.160
  O      -98.879     198.845    -895.120
  C     -101.291     198.605    -895.160
  O     -101.395     199.531    -894.070
  C     -101.567     199.443    -896.410
  O     -101.989     198.643    -897.500
  C     -102.698     200.341    -895.920
  O     -103.951     199.636    -896.020
  C     -102.328     200.569    -894.450
  N     -103.107     205.422    -893.190
  C     -104.012     204.390    -893.340
  N     -105.309     204.681    -893.100
  N     -103.679     203.175    -893.700
  C     -102.344     203.021    -893.880
  C     -101.347     203.964    -893.770
  C     -101.740     205.311    -893.400
  O     -100.985     206.268    -893.290
  N     -100.116     203.424    -894.020
  C     -100.356     202.151    -894.270
  N     -101.702     201.861    -894.210
  O      -96.637     199.398    -896.110
  O      -96.668     198.098    -893.910
  H     -104.644     200.254    -895.710
  H      -96.203     200.065    -895.550
  H     -103.420     206.337    -892.920
  H      -99.608     201.407    -894.480
  H     -103.201     200.486    -893.790
  H     -102.801     201.252    -896.510
  H     -105.631     205.576    -892.750
  H     -100.688     200.052    -896.670
  H     -105.987     203.928    -893.170
  H     -102.076     197.845    -895.050
  H      -99.882     197.232    -894.300
  H      -99.824     197.282    -896.060
  P     -100.904     198.314    -898.630
  C     -100.608     195.851    -897.890
  O     -100.016     197.119    -898.050
  O      -99.928     199.591    -898.580
  O     -101.484     198.107    -900.000
  H      -99.530     199.740    -899.460
  H     -101.228     195.589    -898.760
  H     -101.228     195.840    -896.990
  H      -99.819     195.097    -897.790
  H      -96.578     196.093    -897.811
  H      -95.473     197.092    -896.897
  H      -96.697     197.834    -897.899

 3  4  5  6  7  8  9  10  11  12  23  26  30  31  33  0
 6-311+G(2d,p)
 ****
 35  36  37  38 0
 6-311+G(2d,p)
 ****
 1  2  13  14  15  16  17  18  19  20  21  22  24  25  27  28  29 0
 3-21G
 ****
 32  34  39  40  41  42  43  44  45  46  47  48  49 0
 3-21G
 ****


