%nproc=1
%NoSave
%Mem=1900MB
#P OB98/GEN NMR

erre ene a

0 1
  C     -142.939     194.523     -24.318
  O     -142.321     194.713     -25.592
  P     -141.907     193.439     -26.466
  C     -139.448     193.653     -25.690
  O     -140.339     193.505     -26.790
  C     -138.031     193.937     -26.197
  O     -137.494     192.808     -26.929
  C     -137.974     195.097     -27.182
  O     -138.216     196.387     -26.660
  C     -136.644     194.866     -27.877
  O     -135.555     195.390     -27.119
  C     -136.580     193.321     -27.922
  N     -136.884     192.783     -29.250
  C     -135.842     192.810     -30.171
  O     -134.737     193.293     -29.930
  N     -136.126     192.293     -31.406
  C     -137.331     191.796     -31.810
  O     -137.538     191.365     -32.938
  C     -138.399     191.815     -30.800
  C     -138.133     192.301     -29.585
  O     -142.787     193.137     -27.631
  O     -141.981     192.241     -25.393
  H     -134.731     195.144     -27.584
  H     -142.380     191.468     -25.837
  H     -135.380     192.296     -32.086
  H     -139.370     191.434     -31.086
  H     -138.906     192.323     -28.824
  H     -135.581     192.971     -27.640
  H     -136.612     195.351     -28.858
  H     -138.757     194.935     -27.936
  H     -137.382     194.109     -25.335
  H     -139.460     192.747     -25.081
  H     -139.810     194.464     -25.046
  P     -139.590     197.181     -26.880
  C     -138.287     198.888     -28.334
  O     -139.243     198.683     -27.315
  O     -140.661     196.997     -25.857
  O     -140.100     196.550     -28.269
  H     -141.076     196.528     -28.258
  H     -138.164     199.963     -28.487
  H     -138.623     198.437     -29.271
  H     -137.321     198.465     -28.041
  H     -143.146     195.475     -23.876
  H     -142.281     193.970     -23.681
  H     -143.853     193.981     -24.442

 3  4  5  6  7  8  9  10  11  12  13  23  28  29  30  31  32 0
 6-311+G(2d,p)
 ****
 33  34 0
 6-311+G(2d,p)
 ****
 1  2  14  15  16  17  18  19  20  21  22  24  25  26  27 0
 3-21G
 ****
 35  36  37  38  39  40  41  42  43  44  45 0
 3-21G
 ****


