%nproc=1
%NoSave
%Mem=1900MB
#P OB98/GEN NMR

erre ene a

0 1
  C     -387.634     100.896    -114.263
  O     -386.561     101.537    -114.939
  P     -386.567     103.143    -114.978
  C     -385.110     102.860    -117.107
  O     -385.306     103.555    -115.881
  C     -383.968     103.483    -117.898
  O     -384.330     104.814    -118.312
  C     -382.669     103.636    -117.121
  O     -381.930     102.425    -117.074
  C     -381.948     104.683    -117.959
  O     -381.313     104.050    -119.085
  C     -383.105     105.580    -118.430
  N     -381.206     110.188    -117.530
  C     -380.790     109.217    -118.421
  N     -379.734     109.532    -119.202
  N     -381.357     108.045    -118.534
  C     -382.427     107.887    -117.719
  C     -382.934     108.772    -116.794
  C     -382.265     110.046    -116.641
  O     -382.548     110.918    -115.825
  N     -384.038     108.259    -116.165
  C     -384.223     107.084    -116.733
  N     -383.251     106.800    -117.660
  O     -386.107     103.543    -113.499
  O     -387.871     103.763    -115.341
  H     -382.016     103.841    -119.729
  H     -386.443     104.433    -113.275
  H     -380.744     111.079    -117.496
  H     -385.038     106.413    -116.503
  H     -382.995     105.848    -119.488
  H     -381.165     105.209    -117.404
  H     -379.342     110.459    -119.252
  H     -382.854     104.034    -116.118
  H     -379.438     108.848    -119.886
  H     -383.808     102.879    -118.801
  H     -386.028     102.914    -117.703
  H     -384.898     101.808    -116.887
  P     -381.790     101.724    -115.633
  C     -379.196     101.880    -115.652
  O     -380.340     101.046    -115.636
  O     -382.799     100.489    -115.729
  O     -382.100     102.622    -114.483
  H     -383.110     100.237    -114.837
  H     -379.354     102.785    -115.059
  H     -378.962     102.155    -116.683
  H     -378.354     101.329    -115.231
  H     -387.505      99.835    -114.314
  H     -388.560     101.165    -114.727
  H     -387.646     101.205    -113.239

 3  4  5  6  7  8  9  10  11  12  23  26  30  31  33  0
 6-311+G(2d,p)
 ****
 35  36  37  38 0
 6-311+G(2d,p)
 ****
 1  2  13  14  15  16  17  18  19  20  21  22  24  25  27  28  29 0
 3-21G
 ****
 32  34  39  40  41  42  43  44  45  46  47  48  49 0
 3-21G
 ****


