%nproc=1
%NoSave
%Mem=1900MB
#P OB98/GEN NMR

erre ene a

0 1
  C      -74.271     -73.905    -276.425
  O      -73.659     -72.666    -276.041
  P      -73.922     -71.393    -276.982
  C      -71.403     -70.900    -277.456
  O      -72.637     -70.437    -276.911
  C      -70.276     -69.924    -277.108
  O      -69.946     -69.991    -275.710
  C      -68.975     -70.226    -277.844
  O      -69.035     -69.768    -279.182
  C      -67.952     -69.494    -276.987
  O      -67.760     -68.141    -277.430
  C      -68.585     -69.526    -275.574
  N      -67.837     -70.353    -274.641
  C      -66.854     -69.692    -273.888
  O      -66.656     -68.486    -274.057
  N      -66.112     -70.422    -272.992
  C      -66.317     -71.694    -272.870
  N      -65.548     -72.363    -271.966
  C      -67.321     -72.436    -273.665
  C      -68.037     -71.713    -274.524
  O      -75.042     -70.572    -276.185
  O      -74.373     -71.745    -278.363
  H      -67.217     -67.709    -276.738
  H      -75.630     -70.113    -276.811
  H      -67.449     -73.504    -273.535
  H      -68.796     -72.175    -275.151
  H      -68.641     -68.512    -275.158
  H      -66.968     -69.984    -277.030
  H      -68.775     -71.308    -277.819
  H      -70.611     -68.902    -277.343
  H      -64.866     -71.824    -271.445
  H      -71.486     -71.004    -278.541
  H      -65.618     -73.362    -271.799
  H      -71.197     -71.900    -277.058
  P      -68.851     -70.838    -280.351
  C      -66.589     -70.146    -281.363
  O      -67.999     -70.083    -281.484
  O      -70.321     -70.875    -281.010
  O      -68.383     -72.204    -279.966
  H      -70.364     -71.575    -281.686
  H      -66.142     -69.776    -282.290
  H      -66.268     -71.175    -281.200
  H      -66.262     -69.505    -280.536
  H      -74.015     -74.664    -275.716
  H      -73.920     -74.190    -277.395
  H      -75.334     -73.785    -276.451

 3  4  5  6  7  8  9  10  11  12  13  21  23  27  28  29  30  32 0
 6-311+G(2d,p)
 ****
 34  35 0
 6-311+G(2d,p)
 ****
 1  2  14  15  16  17  18  19  20  22  24  25  26 0
 3-21G
 ****
 31  33  36  37  38  39  40  41  42  43  44  45  46 0
 3-21G
 ****


