%nproc=1
%NoSave
%Mem=1900MB
#P OB98/GEN NMR

erre ene a

0 1
  C     -274.512    -677.618    1148.734
  O     -274.744    -678.633    1147.780
  H     -273.984    -676.793    1148.248
  H     -273.888    -678.012    1149.542
  H     -275.457    -677.242    1149.146
  P     -275.837    -679.750    1148.144
  C     -277.662    -678.538    1146.751
  O     -277.274    -679.042    1148.019
  C     -279.029    -679.102    1146.345
  O     -279.987    -678.776    1147.394
  C     -279.580    -678.525    1145.027
  O     -280.280    -679.565    1144.325
  C     -280.592    -677.502    1145.492
  O     -281.580    -677.224    1144.510
  C     -281.135    -678.179    1146.748
  N     -285.520    -675.829    1147.378
  C     -285.180    -676.874    1146.533
  N     -286.115    -677.307    1145.677
  N     -283.989    -677.423    1146.523
  C     -283.143    -676.900    1147.438
  C     -283.362    -675.876    1148.334
  C     -284.670    -675.250    1148.320
  O     -285.038    -674.327    1149.031
  N     -282.225    -675.602    1149.054
  C     -281.316    -676.438    1148.588
  N     -281.832    -677.254    1147.609
  O     -275.639    -679.922    1149.728
  O     -275.699    -681.043    1147.418
  H     -281.131    -677.029    1143.665
  H     -275.034    -680.681    1149.897
  H     -286.444    -675.430    1147.337
  H     -280.292    -676.481    1148.913
  H     -281.843    -678.994    1146.514
  H     -280.084    -676.563    1145.750
  H     -287.063    -676.954    1145.642
  H     -278.803    -678.102    1144.361
  H     -285.892    -678.094    1145.080
  H     -278.964    -680.194    1146.303
  H     -276.922    -678.851    1146.000
  H     -277.687    -677.444    1146.789
  P     -280.173    -679.615    1142.718
  C     -278.606    -681.702    1142.593
  O     -278.778    -680.313    1142.322
  O     -279.946    -678.086    1142.334
  O     -281.390    -680.183    1142.062
  H     -280.376    -677.892    1141.482
  H     -277.633    -682.010    1142.273
  H     -279.349    -682.263    1142.066
  H     -278.707    -681.876    1143.644

 6  7  8  9  10  11  12  13  14  15  26  29  33  34 0
 6-311+G(2d,p)
 ****
 36  38  39  40  41 0
 6-311+G(2d,p)
 ****
 1  2  3  4  5  16  17  18  19  20  21  22  23  24  25 0
 3-21G
 ****
 27  28  30  31  32  35  37  42  43  44  45  46  47 0
 3-21G
 ****
 48  49 0
 3-21G
 ****


