%nproc=1
%NoSave
%Mem=1900MB
#P OB98/GEN NMR

erre ene a

0 1
  C      100.571     137.659     -89.411
  O      101.164     136.388     -89.593
  H      101.227     138.417     -89.851
  H      100.451     137.881     -88.347
  H       99.601     137.703     -89.912
  P      100.435     135.109     -88.963
  C       98.056     134.109     -89.159
  O       98.875     135.266     -89.298
  C       96.584     134.503     -89.053
  O       96.361     135.294     -87.870
  C       96.079     135.348     -90.218
  O       95.884     134.548     -91.367
  C       94.818     135.935     -89.609
  O       93.745     134.978     -89.619
  C       95.284     136.218     -88.159
  N       95.712     137.596     -87.943
  C       94.696     138.559     -87.921
  O       93.523     138.227     -88.093
  N       95.044     139.873     -87.722
  C       96.284     140.196     -87.519
  N       96.560     141.511     -87.323
  C       97.378     139.206     -87.500
  C       97.028     137.941     -87.726
  O      100.732     134.823     -87.521
  O      100.888     133.900     -89.909
  H       94.064     134.208     -89.108
  H      101.672     133.453     -89.540
  H       98.399     139.517     -87.317
  H       97.774     137.152     -87.728
  H       94.478     135.996     -87.448
  H       94.466     136.813     -90.151
  H       96.777     136.166     -90.422
  H       95.994     133.583     -88.952
  H       95.771     142.151     -87.326
  H       98.375     133.596     -88.245
  H       97.454     141.854     -86.998
  H       98.203     133.428     -90.005
  P       95.867     135.182     -92.840
  C       97.611     136.461     -94.233
  O       97.175     136.114     -92.928
  O       94.592     135.849     -93.228
  O       96.257     133.950     -93.785
  H       95.479     133.350     -93.908
  H       98.482     137.078     -94.166
  H       96.834     136.995     -94.738
  H       97.846     135.571     -94.779

 6  7  8  9  10  11  12  13  14  15  16  26  30  31  32  33  35 0
 6-311+G(2d,p)
 ****
 37  38 0
 6-311+G(2d,p)
 ****
 1  2  3  4  5  17  18  19  20  21  22  23  24  25 0
 3-21G
 ****
 27  28  29  34  36  39  40  41  42  43  44  45  46 0
 3-21G
 ****


