%nproc=1
%NoSave
%Mem=1900MB
#P OB98/GEN NMR

erre ene a

0 1
  C      158.102    -513.649    -278.970
  O      158.198    -515.046    -278.781
  H      157.096    -513.328    -278.690
  H      158.275    -513.399    -280.018
  H      158.827    -513.127    -278.337
  P      159.617    -515.717    -279.124
  C      160.804    -517.921    -278.403
  O      159.610    -517.160    -278.424
  C      160.624    -519.180    -277.543
  O      160.517    -518.780    -276.144
  C      159.355    -519.980    -277.872
  O      159.608    -521.360    -277.560
  C      158.360    -519.403    -276.876
  O      157.213    -520.220    -276.780
  C      159.261    -519.301    -275.646
  N      157.205    -519.179    -270.970
  C      157.690    -520.194    -271.711
  N      158.239    -520.151    -272.943
  C      158.269    -518.884    -273.404
  C      157.823    -517.747    -272.760
  C      157.261    -517.924    -271.480
  N      156.758    -516.887    -270.729
  N      158.026    -516.621    -273.547
  C      158.585    -517.081    -274.644
  N      158.748    -518.441    -274.607
  O      160.647    -514.865    -278.238
  O      159.996    -515.719    -280.567
  H      157.445    -521.113    -276.444
  H      161.039    -514.154    -278.777
  H      157.632    -521.183    -271.253
  H      158.888    -516.481    -275.500
  H      159.460    -520.283    -275.209
  H      158.016    -518.413    -277.195
  H      159.045    -519.897    -278.917
  H      161.523    -519.809    -277.627
  H      161.610    -517.297    -277.983
  H      161.076    -518.213    -279.425
  H      156.360    -517.104    -269.826
  H      156.780    -515.949    -271.102
  P      159.331    -522.485    -278.682
  C      160.883    -524.591    -278.812
  O      159.845    -523.898    -278.124
  O      160.443    -522.133    -279.784
  O      157.966    -522.473    -279.284
  H      160.133    -522.420    -280.657
  H      161.097    -525.508    -278.304
  H      161.763    -523.983    -278.836
  H      160.568    -524.803    -279.812

 6  7  8  9  10  11  12  13  14  15  25  28  32  33  34  35 0
 6-311+G(2d,p)
 ****
 36  37  40 0
 6-311+G(2d,p)
 ****
 1  2  3  4  5  16  17  18  19  20  21  22  23  24 0
 3-21G
 ****
 26  27  29  30  31  38  39 41  42  43  44  45  46  47  48 0
 3-21G
 ****


