%nproc=1
%NoSave
%Mem=1900MB
#P OB98/GEN NMR

erre ene a

0 1
  C      220.925    -311.200      -4.287
  O      221.531    -312.256      -3.569
  P      220.823    -312.872      -2.271
  C      221.877    -315.027      -3.222
  O      221.519    -314.302      -2.047
  C      222.815    -316.187      -2.881
  O      222.344    -316.893      -1.718
  C      222.932    -317.232      -3.982
  O      223.778    -316.770      -5.024
  C      223.480    -318.418      -3.200
  O      224.905    -318.324      -3.035
  C      222.763    -318.270      -1.842
  N      221.641    -319.191      -1.702
  C      221.796    -320.205      -0.747
  O      222.845    -320.298      -0.107
  N      220.780    -321.112      -0.575
  C      219.713    -321.028      -1.311
  N      218.748    -321.963      -1.105
  C      219.522    -319.997      -2.350
  C      220.518    -319.120      -2.491
  O      219.332    -312.884      -2.300
  O      221.430    -311.993      -1.076
  H      225.188    -319.163      -2.624
  H      221.031    -311.088      -1.059
  H      218.624    -319.974      -2.945
  H      220.463    -318.333      -3.233
  H      223.463    -318.455      -1.016
  H      223.280    -319.371      -3.705
  H      221.936    -317.478      -4.369
  H      223.802    -315.768      -2.650
  H      218.930    -322.672      -0.404
  H      222.382    -314.344      -3.907
  H      217.894    -322.009      -1.644
  H      220.969    -315.394      -3.710
  P      223.531    -317.258      -6.526
  C      223.643    -314.881      -7.481
  O      224.196    -316.181      -7.507
  O      222.122    -317.634      -6.854
  O      224.503    -318.526      -6.672
  H      224.021    -319.242      -7.124
  H      224.364    -314.181      -7.913
  H      223.416    -314.568      -6.456
  H      222.731    -314.859      -8.076
  H      221.546    -310.929      -5.115
  H      220.801    -310.355      -3.642
  H      219.969    -311.517      -4.648

 3  4  5  6  7  8  9  10  11  12  13  23  27  28  29  30  32 0
 6-311+G(2d,p)
 ****
 34  35 0
 6-311+G(2d,p)
 ****
 1  2  14  15  16  17  18  19  20  21  22  24  25  26 0
 3-21G
 ****
 31  33  36  37  38  39  40  41  42  43  44  45  46 0
 3-21G
 ****


