%nproc=1
%NoSave
%Mem=1900MB
#P OB98/GEN NMR

erre ene a

0 1
  C      345.165    -134.608     -53.003
  O      344.381    -135.723     -52.622
  H      344.750    -134.188     -53.926
  H      346.198    -134.910     -53.192
  H      345.137    -133.840     -52.228
  P      344.795    -136.520     -51.296
  C      342.918    -135.708     -49.715
  O      344.292    -135.615     -50.068
  C      342.758    -136.554     -48.459
  O      343.675    -136.116     -47.437
  C      341.356    -136.488     -47.843
  O      340.474    -137.363     -48.531
  C      341.664    -136.944     -46.426
  O      341.839    -138.372     -46.399
  C      342.999    -136.232     -46.153
  N      344.348    -133.224     -42.301
  C      344.629    -134.561     -42.522
  N      345.333    -135.193     -41.560
  N      344.236    -135.217     -43.585
  C      343.482    -134.474     -44.425
  C      343.126    -133.151     -44.307
  C      343.612    -132.420     -43.158
  O      343.404    -131.224     -42.926
  N      342.296    -132.756     -45.327
  C      342.188    -133.828     -46.083
  N      342.878    -134.904     -45.572
  O      346.229    -136.939     -51.190
  O      343.797    -137.770     -51.265
  H      341.107    -138.751     -46.925
  H      344.195    -138.548     -51.701
  H      344.664    -132.782     -41.454
  H      341.626    -133.883     -47.011
  H      343.650    -136.814     -45.490
  H      340.869    -136.703     -45.721
  H      345.407    -134.822     -40.619
  H      340.978    -135.465     -47.806
  H      345.505    -136.185     -41.681
  H      343.029    -137.587     -48.712
  H      342.390    -136.165     -50.559
  H      342.502    -134.708     -49.545
  P      339.331    -136.783     -49.499
  C      340.310    -137.768     -51.679
  O      340.048    -136.593     -50.923
  O      338.635    -135.567     -48.987
  O      338.359    -138.022     -49.761
  H      337.639    -138.109     -49.089
  H      340.787    -137.501     -52.599
  H      339.389    -138.271     -51.887
  H      340.952    -138.416     -51.120

 6  7  8  9  10  11  12  13  14  15  26  29  33  34 0
 6-311+G(2d,p)
 ****
 36  38  39  40  41 0
 6-311+G(2d,p)
 ****
 1  2  3  4  5  16  17  18  19  20  21  22  23  24  25 0
 3-21G
 ****
 27  28  30  31  32  35  37  42  43  44  45  46  47 0
 3-21G
 ****
 48  49 0
 3-21G
 ****


