%nproc=1
%NoSave
%Mem=1900MB
#P OB98/GEN NMR

erre ene a

0 1
  C       15.869     -81.049     -93.114
  O       16.179     -81.172     -94.490
  H       16.674     -80.497     -92.620
  H       15.792     -82.041     -92.661
  H       14.931     -80.503     -92.980
  P       15.018     -81.744     -95.432
  C       15.991     -84.178     -95.360
  O       14.885     -83.318     -95.125
  C       15.498     -85.571     -95.742
  O       14.743     -86.161     -94.666
  C       14.530     -85.591     -96.913
  O       15.165     -85.343     -98.148
  C       13.971     -87.002     -96.792
  O       14.819     -87.965     -97.429
  C       13.952     -87.217     -95.259
  N       12.599     -87.255     -94.738
  C       11.909     -88.457     -94.946
  O       12.464     -89.396     -95.518
  N       10.606     -88.547     -94.534
  C       10.030     -87.521     -93.990
  N        8.725     -87.665     -93.634
  C       10.719     -86.236     -93.754
  C       11.990     -86.172     -94.149
  O       15.699     -81.711     -96.878
  O       13.725     -81.006     -95.349
  H       15.004     -87.618     -98.326
  H       16.585     -82.109     -96.903
  H       10.199     -85.414     -93.284
  H       12.572     -85.268     -94.015
  H       14.446     -88.162     -94.998
  H       12.987     -87.087     -97.260
  H       13.710     -84.883     -96.738
  H       16.376     -86.201     -95.939
  H        8.276     -88.544     -93.864
  H       16.632     -84.232     -94.475
  H        8.155     -86.913     -93.276
  H       16.582     -83.746     -96.173
  P       14.551     -84.310     -99.207
  C       13.833     -86.238    -100.757
  O       13.408     -85.101    -100.014
  O       15.547     -83.617    -100.074
  O       13.686     -83.322     -98.289
  H       12.978     -83.752     -97.779
  H       12.991     -86.679    -101.248
  H       14.273     -86.953    -100.094
  H       14.555     -85.937    -101.488

 6  7  8  9  10  11  12  13  14  15  16  26  30  31  32  33  35 0
 6-311+G(2d,p)
 ****
 37  38 0
 6-311+G(2d,p)
 ****
 1  2  3  4  5  17  18  19  20  21  22  23  24  25 0
 3-21G
 ****
 27  28  29  34  36  39  40  41  42  43  44  45  46 0
 3-21G
 ****


