%nproc=1
%NoSave
%Mem=1900MB
#P OB98/GEN NMR

erre ene a

0 1
  C     -878.368    -580.887     808.373
  O     -877.399    -581.232     809.337
  H     -877.866    -580.381     807.540
  H     -879.104    -580.204     808.803
  H     -878.866    -581.778     807.986
  P     -877.838    -582.134     810.589
  C     -876.844    -584.432     809.988
  O     -876.714    -583.260     810.777
  C     -875.559    -585.253     810.062
  O     -874.491    -584.567     809.359
  C     -875.048    -585.469     811.481
  O     -875.815    -586.440     812.166
  C     -873.600    -585.852     811.202
  O     -873.490    -587.246     810.866
  C     -873.252    -584.963     809.990
  N     -872.459    -583.795     810.384
  C     -871.086    -583.985     810.464
  O     -870.528    -585.049     810.227
  N     -870.361    -582.901     810.903
  C     -870.891    -581.731     811.382
  O     -870.230    -580.896     811.982
  C     -872.340    -581.568     811.205
  C     -873.053    -582.598     810.734
  O     -879.244    -582.640     810.557
  O     -877.598    -581.169     811.848
  H     -878.452    -580.809     812.143
  H     -874.124    -587.397     810.143
  H     -869.372    -583.041     811.010
  H     -872.785    -580.634     811.508
  H     -874.132    -582.512     810.630
  H     -872.685    -585.536     809.248
  H     -872.967    -585.682     812.079
  H     -875.060    -584.519     812.020
  H     -875.734    -586.219     809.557
  H     -877.026    -584.140     808.940
  H     -877.698    -585.016     810.341
  P     -875.436    -586.844     813.672
  C     -877.130    -585.241     814.762
  O     -876.724    -586.598     814.597
  O     -874.161    -586.250     814.190
  O     -875.335    -588.448     813.625
  H     -874.494    -588.718     814.036
  H     -877.993    -585.201     815.394
  H     -877.368    -584.821     813.807
  H     -876.334    -584.682     815.209

 6  7  8  9  10  11  12  13  14  15  16  27  31  32  33  34  35 0
 6-311+G(2d,p)
 ****
 36  37 0
 6-311+G(2d,p)
 ****
 1  2  3  4  5  17  18  19  20  21  22  23  24  25 0
 3-21G
 ****
 26  28  29  30  38  39  40  41  42  43  44  45 0
 3-21G
 ****


