%nproc=1
%NoSave
%Mem=1900MB
#P OB98/GEN NMR

erre ene a

0 1
  C      -30.192      71.954      97.935
  O      -31.208      71.660      98.874
  H      -30.661      72.242      96.991
  H      -29.574      71.067      97.766
  H      -29.571      72.781      98.291
  P      -30.737      71.385     100.385
  C      -31.235      73.810     101.261
  O      -31.551      72.429     101.289
  C      -32.116      74.584     102.243
  O      -31.778      75.992     102.159
  C      -33.614      74.446     101.967
  O      -34.306      74.439     103.217
  C      -33.950      75.722     101.214
  O      -35.332      76.055     101.311
  C      -32.989      76.722     101.877
  N      -32.731      77.889     101.036
  C      -33.834      78.681     100.705
  O      -34.959      78.377     101.105
  N      -33.649      79.772      99.895
  C      -32.475      80.015      99.402
  N      -32.362      81.097      98.585
  C      -31.291      79.182      99.688
  C      -31.487      78.152     100.511
  O      -29.247      71.971     100.375
  O      -30.835      69.959     100.812
  H      -35.469      76.940     100.907
  H      -29.173      72.831      99.928
  H      -30.335      79.419      99.245
  H      -30.672      77.493     100.782
  H      -33.398      77.072     102.834
  H      -33.706      75.609     100.152
  H      -33.859      73.544     101.403
  H      -31.871      74.259     103.261
  H      -33.203      81.628      98.397
  H      -31.377      74.212     100.253
  H      -31.512      81.348      98.103
  H      -30.180      73.921     101.527
  P      -35.310      73.240     103.556
  C      -33.984      71.186     104.401
  O      -34.704      72.362     104.752
  O      -35.809      72.462     102.385
  O      -36.532      73.999     104.277
  H      -37.363      73.596     103.957
  H      -33.638      70.701     105.290
  H      -33.146      71.450     103.790
  H      -34.626      70.523     103.859

 6  7  8  9  10  11  12  13  14  15  16  26  30  31  32  33  35 0
 6-311+G(2d,p)
 ****
 37  38 0
 6-311+G(2d,p)
 ****
 1  2  3  4  5  17  18  19  20  21  22  23  24  25 0
 3-21G
 ****
 27  28  29  34  36  39  40  41  42  43  44  45  46 0
 3-21G
 ****


