%nproc=1
%NoSave
%Mem=1900MB
#P OB98/GEN NMR

erre ene a

0 1
  C      385.018    -647.778     391.615
  O      384.537    -648.174     392.883
  H      384.253    -647.961     390.854
  H      385.235    -646.708     391.642
  H      385.937    -648.316     391.364
  P      384.318    -649.747     393.113
  C      381.718    -649.669     393.018
  O      382.926    -650.105     392.396
  C      380.527    -649.899     392.083
  O      380.553    -651.277     391.619
  C      379.170    -649.660     392.762
  O      378.286    -649.037     391.825
  C      378.676    -651.067     393.070
  O      377.264    -651.139     393.170
  C      379.266    -651.860     391.905
  N      376.758    -656.047     393.420
  C      376.333    -654.805     393.086
  N      377.067    -653.745     392.689
  C      378.365    -654.078     392.595
  C      378.950    -655.300     392.903
  C      378.086    -656.314     393.346
  N      378.516    -657.566     393.716
  N      380.319    -655.240     392.716
  C      380.557    -654.004     392.312
  N      379.409    -653.264     392.224
  O      383.966    -649.821     394.676
  O      385.470    -650.623     392.758
  H      377.018    -652.046     393.431
  H      384.790    -649.764     395.196
  H      375.257    -654.641     393.158
  H      381.528    -653.598     392.077
  H      378.646    -651.795     390.998
  H      379.111    -651.406     394.022
  H      379.245    -649.050     393.655
  H      380.643    -649.262     391.204
  H      381.803    -648.600     393.251
  H      377.834    -658.213     394.078
  H      379.504    -657.765     393.725
  H      381.571    -650.230     393.950
  P      377.831    -647.528     392.158
  C      376.035    -648.491     393.769
  O      377.058    -647.530     393.566
  O      376.668    -647.256     391.085
  O      378.932    -646.534     392.033
  H      376.832    -646.407     390.637
  H      375.618    -648.367     394.746
  H      376.447    -649.475     393.679
  H      375.269    -648.357     393.034

 6  7  8  9  10  11  12  13  14  15  25  28  32  33  34  35 0
 6-311+G(2d,p)
 ****
 36  39  40 0
 6-311+G(2d,p)
 ****
 1  2  3  4  5  16  17  18  19  20  21  22  23  24 0
 3-21G
 ****
 26  27  29  30  31  37  38  41  42  43  44  45  46  47 0
 3-21G
 ****
 48 0
 3-21G
 ****


