%nproc=1
%NoSave
%Mem=1900MB
#P OB98/GEN NMR

erre ene a

0 1
  C      434.808    -950.451     925.759
  O      435.117    -950.280     927.127
  P      436.338    -949.282     927.495
  C      437.006    -948.133     929.763
  O      435.989    -948.674     928.940
  C      436.391    -947.591     931.076
  O      435.500    -946.496     930.766
  C      435.554    -948.606     931.833
  O      436.349    -949.531     932.549
  C      434.712    -947.666     932.714
  O      435.481    -947.234     933.854
  C      434.443    -946.483     931.762
  N      433.131    -946.499     931.144
  C      432.199    -945.586     931.614
  O      432.469    -944.790     932.525
  N      430.952    -945.623     931.032
  C      430.531    -946.515     930.092
  O      429.396    -946.521     929.645
  C      431.553    -947.485     929.658
  C      432.774    -947.444     930.194
  O      436.059    -948.090     926.478
  O      437.683    -949.928     927.365
  H      435.108    -948.017     926.239
  H      434.903    -946.630     934.344
  H      430.274    -944.947     931.373
  H      431.240    -948.220     928.901
  H      433.530    -948.144     929.859
  H      434.557    -945.544     932.305
  H      433.795    -948.149     933.080
  H      434.875    -949.143     931.149
  H      437.198    -947.210     931.697
  H      437.519    -947.317     929.243
  H      437.745    -948.919     929.989
  P      435.580    -950.761     933.258
  C      436.237    -953.211     933.848
  O      436.579    -951.998     933.186
  O      434.466    -951.084     932.160
  O      435.049    -950.418     934.611
  H      434.800    -951.071     931.243
  H      436.819    -954.028     933.403
  H      435.165    -953.439     933.738
  H      436.485    -953.142     934.905
  H      433.988    -951.131     925.661
  H      435.661    -950.845     925.247
  H      434.541    -949.506     925.333

 3  4  5  6  7  8  9  10  11  12  13  24  28  29  30  31  32 0
 6-311+G(2d,p)
 ****
 33  34 0
 6-311+G(2d,p)
 ****
 1  2  14  15  16  17  18  19  20  21  22  23  25  26  27 0
 3-21G
 ****
 35  36  37  38  39  40  41  42  43  44  45 0
 3-21G
 ****


