%nproc=1
%NoSave
%Mem=1900MB
#P OB98/GEN NMR

erre ene a

0 1
  C       -6.639     -36.129      35.018
  O       -6.140     -35.296      36.052
  P       -6.962     -34.006      36.530
  C       -5.189     -32.304      35.778
  O       -6.508     -32.796      35.577
  C       -4.866     -31.203      34.770
  O       -4.804     -31.785      33.446
  C       -5.907     -30.090      34.733
  O       -5.245     -28.845      34.496
  C       -6.760     -30.413      33.519
  O       -7.375     -29.230      32.983
  C       -5.734     -31.083      32.599
  N       -8.960     -31.707      28.654
  C       -8.551     -30.601      29.314
  N       -7.713     -30.510      30.369
  C       -7.239     -31.723      30.699
  C       -7.560     -32.939      30.115
  C       -8.469     -32.906      29.044
  N       -8.874     -34.034      28.365
  N       -6.896     -33.974      30.747
  C       -6.174     -33.389      31.677
  N       -6.339     -32.029      31.681
  O       -6.881     -33.711      37.987
  O       -8.464     -34.290      36.064
  H       -7.998     -29.520      32.285
  H       -9.095     -33.965      36.734
  H       -8.956     -29.661      28.948
  H       -5.530     -33.900      32.376
  H       -5.172     -30.344      32.016
  H       -7.558     -31.108      33.805
  H       -6.499     -30.030      35.652
  H       -3.872     -30.799      34.998
  H       -4.487     -33.132      35.642
  H       -9.431     -33.900      27.536
  H       -8.380     -34.898      28.540
  H       -5.091     -31.931      36.803
  P       -5.965     -27.538      35.104
  C       -7.086     -27.190      32.781
  O       -7.250     -27.313      34.175
  O       -5.018     -26.393      35.250
  O       -6.539     -28.114      36.484
  H       -6.675     -29.086      36.441
  H       -8.064     -27.004      32.328
  H       -6.682     -28.116      32.364
  H       -6.422     -26.353      32.545
  H       -5.953     -36.931      34.844
  H       -6.752     -35.556      34.122
  H       -7.588     -36.528      35.308

 3  4  5  6  7  8  9  10  11  12  22  25  29  30  31  32 0
 6-311+G(2d,p)
 ****
 33  36  37 0
 6-311+G(2d,p)
 ****
 1  2  13  14  15  16  17  18  19  20  21  23  24  26 0
 3-21G
 ****
 27  28  34  35  38  39  40  41  42  43  44  45  46  47  48 0
 3-21G
 ****


