%nproc=1
%NoSave
%Mem=1900MB
#P OB98/GEN NMR

erre ene a

0 1
  C      -80.655      72.333      24.115
  O      -79.391      72.899      24.481
  P      -79.380      73.812      25.807
  C      -78.726      71.973      27.520
  O      -78.340      73.164      26.847
  C      -77.559      71.349      28.289
  O      -76.336      71.539      27.537
  C      -77.322      71.937      29.685
  O      -76.912      70.879      30.565
  C      -76.126      72.848      29.484
  O      -75.422      73.090      30.699
  C      -75.345      72.052      28.441
  N      -70.415      73.005      27.847
  C      -71.040      72.021      28.585
  N      -70.236      71.187      29.281
  N      -72.337      71.866      28.637
  C      -73.013      72.751      27.865
  C      -72.508      73.764      27.082
  C      -71.073      73.948      27.069
  O      -70.462      74.835      26.476
  N      -73.511      74.455      26.446
  C      -74.618      73.866      26.851
  N      -74.369      72.833      27.718
  O      -80.813      73.523      26.458
  O      -79.188      75.265      25.534
  H      -74.674      73.679      30.484
  H      -81.298      74.362      26.580
  H      -69.414      73.092      27.859
  H      -75.620      74.158      26.570
  H      -74.829      71.198      28.897
  H      -76.466      73.812      29.086
  H      -69.230      71.210      29.234
  H      -78.184      72.461      30.109
  H      -70.675      70.430      29.791
  H      -77.732      70.269      28.357
  H      -79.100      71.250      26.790
  H      -79.546      72.209      28.206
  P      -77.872      70.579      31.815
  C      -79.718      69.371      30.436
  O      -78.706      69.270      31.419
  O      -78.954      71.755      31.741
  O      -77.168      70.535      33.130
  H      -79.314      71.940      32.629
  H      -79.682      70.325      29.903
  H      -80.693      69.271      30.918
  H      -79.592      68.560      29.715
  H      -80.541      71.750      23.225
  H      -81.360      73.118      23.939
  H      -81.009      71.707      24.908

 3  4  5  6  7  8  9  10  11  12  23  26  30  31  33  0
 6-311+G(2d,p)
 ****
 35  36  37  38 0
 6-311+G(2d,p)
 ****
 1  2  13  14  15  16  17  18  19  20  21  22  24  25  27  28  29 0
 3-21G
 ****
 32  34  39  40  41  42  43  44  45  46  47  48  49 0
 3-21G
 ****


