%nproc=1
%NoSave
%Mem=1900MB
#P OB98/GEN NMR

erre ene a

0 1
  C       98.384     283.275     221.098
  O       99.425     284.151     220.713
  H       98.296     283.294     222.188
  H       98.609     282.253     220.784
  H       97.437     283.605     220.662
  P       99.797     284.198     219.153
  C      102.085     285.244     219.807
  O      101.394     284.252     219.050
  C      103.397     284.669     220.326
  O      103.130     283.539     221.194
  C      104.311     284.117     219.238
  O      105.026     285.140     218.562
  C      105.221     283.216     220.045
  O      106.310     283.941     220.639
  C      104.269     282.657     221.132
  N      103.882     281.279     220.853
  C      104.867     280.321     221.096
  O      106.000     280.593     221.508
  N      104.524     279.027     220.796
  C      103.342     278.614     220.254
  O      103.120     277.446     219.961
  C      102.345     279.672     220.009
  C      102.659     280.932     220.311
  O       99.334     285.663     218.712
  O       99.150     283.135     218.325
  H       98.518     285.607     218.183
  H      106.821     283.285     221.153
  H      105.221     278.324     220.971
  H      101.402     279.381     219.575
  H      101.951     281.733     220.127
  H      104.753     282.694     222.111
  H      105.659     282.433     219.422
  H      103.730     283.503     218.535
  H      103.918     285.438     220.908
  H      101.472     285.554     220.663
  H      102.262     286.112     219.170
  P      105.261     284.968     216.979
  C      107.386     286.509     217.220
  O      106.810     285.313     216.733
  O      104.470     286.243     216.427
  O      104.789     283.653     216.453
  H      104.440     286.964     217.079
  H      108.421     286.543     216.949
  H      107.295     286.541     218.286
  H      106.878     287.349     216.794

 6  7  8  9  10  11  12  13  14  15  16  27  31  32  33  34  35 0
 6-311+G(2d,p)
 ****
 36  37 0
 6-311+G(2d,p)
 ****
 1  2  3  4  5  17  18  19  20  21  22  23  24  25 0
 3-21G
 ****
 26  28  29  30  38  39  40  41  42  43  44  45 0
 3-21G
 ****


