%nproc=1
%NoSave
%Mem=1900MB
#P OB98/GEN NMR

erre ene a

0 1
  C       55.181      -2.369     -82.280
  O       55.326      -0.977     -82.106
  H       55.885      -2.700     -83.048
  H       54.164      -2.593     -82.615
  H       55.390      -2.912     -81.354
  P       54.758      -0.305     -80.770
  C       52.415      -0.272     -81.848
  O       53.404       0.471     -81.150
  C       51.413       0.638     -82.560
  O       50.503      -0.150     -83.359
  C       50.543       1.424     -81.579
  O       51.115       2.621     -81.085
  C       49.307       1.717     -82.425
  O       49.496       2.903     -83.215
  C       49.211       0.482     -83.324
  N       44.297      -0.912     -83.366
  C       44.887       0.208     -83.918
  N       44.053       1.096     -84.503
  N       46.173       0.438     -83.878
  C       46.870      -0.487     -83.177
  C       46.393      -1.630     -82.574
  C       44.973      -1.904     -82.671
  O       44.399      -2.878     -82.193
  N       47.400      -2.331     -81.957
  C       48.468      -1.576     -82.121
  N       48.201      -0.460     -82.879
  O       55.780       0.900     -80.490
  O       54.663      -1.216     -79.584
  H       48.771       2.959     -83.863
  H       55.795       1.108     -79.539
  H       43.305      -1.052     -83.450
  H       49.457      -1.803     -81.739
  H       48.963       0.757     -84.357
  H       48.423       1.889     -81.803
  H       43.049       1.019     -84.456
  H       50.242       0.786     -80.741
  H       44.407       2.038     -84.679
  H       51.953       1.303     -83.245
  H       51.900      -0.885     -81.105
  H       52.886      -0.955     -82.561
  P       50.730       3.149     -79.624
  C       49.682       5.291     -80.667
  O       50.580       4.742     -79.727
  O       52.089       2.947     -78.805
  O       49.585       2.446     -78.982
  H       52.063       2.106     -78.311
  H       49.707       6.359     -80.602
  H       48.692       4.944     -80.459
  H       49.967       4.987     -81.652

 6  7  8  9  10  11  12  13  14  15  26  29  33  34 0
 6-311+G(2d,p)
 ****
 36  38  39  40  41 0
 6-311+G(2d,p)
 ****
 1  2  3  4  5  16  17  18  19  20  21  22  23  24  25 0
 3-21G
 ****
 27  28  30  31  32  35  37  42  43  44  45  46  47 0
 3-21G
 ****
 48  49 0
 3-21G
 ****


