%nproc=1
%NoSave
%Mem=1900MB
#P OB98/GEN NMR

erre ene a

0 1
  C      738.910    -566.996    -127.751
  O      738.030    -567.851    -128.468
  P      736.841    -568.543    -127.644
  C      736.921    -570.174    -125.629
  O      737.511    -569.773    -126.856
  C      737.959    -570.849    -124.732
  O      738.929    -569.868    -124.305
  C      737.390    -571.446    -123.445
  O      736.813    -572.726    -123.682
  C      738.653    -571.549    -122.606
  O      739.376    -572.746    -122.951
  C      739.441    -570.292    -123.018
  N      740.750    -568.568    -118.438
  C      741.084    -569.750    -119.074
  N      741.904    -570.576    -118.390
  N      740.648    -570.093    -120.254
  C      739.867    -569.152    -120.826
  C      739.462    -567.931    -120.305
  C      739.916    -567.593    -118.972
  O      739.592    -566.582    -118.332
  N      738.683    -567.243    -121.191
  C      738.645    -568.014    -122.266
  N      739.323    -569.200    -122.083
  O      735.985    -569.262    -128.788
  O      736.006    -567.613    -126.827
  H      739.577    -572.691    -123.914
  H      735.065    -569.374    -128.489
  H      741.121    -568.345    -117.530
  H      738.138    -567.755    -123.197
  H      740.504    -570.532    -123.154
  H      738.432    -571.613    -121.529
  H      742.373    -570.320    -117.538
  H      736.674    -570.762    -122.973
  H      742.198    -571.444    -118.850
  H      738.476    -571.615    -125.322
  H      736.112    -570.890    -125.833
  H      736.487    -569.295    -125.136
  P      735.738    -573.213    -122.592
  C      735.757    -573.133    -119.999
  O      736.508    -573.202    -121.196
  O      735.556    -574.774    -122.927
  O      734.433    -572.486    -122.633
  H      734.683    -575.089    -122.638
  H      734.821    -573.690    -120.075
  H      735.535    -572.079    -119.772
  H      736.350    -573.556    -119.174
  H      739.650    -566.605    -128.418
  H      739.390    -567.550    -126.972
  H      738.353    -566.189    -127.324

 3  4  5  6  7  8  9  10  11  12  23  26  30  31  33  0
 6-311+G(2d,p)
 ****
 35  36  37  38 0
 6-311+G(2d,p)
 ****
 1  2  13  14  15  16  17  18  19  20  21  22  24  25  27  28  29 0
 3-21G
 ****
 32  34  39  40  41  42  43  44  45  46  47  48  49 0
 3-21G
 ****


