%nproc=1
%NoSave
%Mem=1900MB
#P OB98/GEN NMR

erre ene a

0 1
  C      283.534    -238.655      23.862
  O      284.631    -237.912      24.414
  P      286.097    -237.943      23.761
  C      287.002    -238.661      26.066
  O      287.189    -237.817      24.933
  C      287.749    -238.136      27.294
  O      287.210    -236.867      27.716
  C      287.686    -239.050      28.513
  O      288.597    -240.126      28.380
  C      288.005    -238.065      29.638
  O      289.425    -237.856      29.734
  C      287.307    -236.792      29.155
  N      284.703    -234.484      32.903
  C      286.007    -234.451      32.558
  N      286.626    -235.099      31.545
  C      285.745    -235.822      30.838
  C      284.384    -235.960      31.073
  C      283.859    -235.249      32.169
  N      282.531    -235.294      32.528
  N      283.810    -236.810      30.154
  C      284.804    -237.169      29.363
  N      285.991    -236.601      29.735
  O      286.288    -236.971      22.640
  O      286.281    -239.446      23.244
  H      289.843    -238.732      29.837
  H      286.893    -239.462      22.482
  H      286.641    -233.819      33.176
  H      284.713    -237.832      28.514
  H      287.897    -235.897      29.380
  H      287.659    -238.417      30.616
  H      286.667    -239.432      28.643
  H      288.792    -237.961      27.000
  H      287.371    -239.664      25.812
  H      282.240    -234.782      33.345
  H      281.906    -235.898      32.013
  H      285.926    -238.724      26.279
  P      288.099    -241.634      28.589
  C      289.463    -242.088      30.716
  O      289.272    -242.416      29.352
  O      287.562    -242.310      27.373
  O      286.971    -241.504      29.726
  H      286.309    -242.210      29.602
  H      290.036    -241.162      30.789
  H      290.027    -242.895      31.194
  H      288.505    -241.973      31.228
  H      282.658    -238.489      24.453
  H      283.773    -239.698      23.864
  H      283.354    -238.332      22.858

 3  4  5  6  7  8  9  10  11  12  22  25  29  30  31  32 0
 6-311+G(2d,p)
 ****
 33  36  37 0
 6-311+G(2d,p)
 ****
 1  2  13  14  15  16  17  18  19  20  21  23  24  26 0
 3-21G
 ****
 27  28  34  35  38  39  40  41  42  43  44  45  46  47  48 0
 3-21G
 ****


