%nproc=1
%NoSave
%Mem=1900MB
#P OB98/GEN NMR

erre ene a

0 1
  C     -186.611     -77.604    -274.472
  O     -187.344     -78.809    -274.620
  P     -188.858     -78.716    -275.135
  C     -188.399     -79.071    -277.669
  O     -188.833     -78.179    -276.651
  C     -189.555     -79.431    -278.601
  O     -189.076     -80.313    -279.651
  C     -190.712     -80.149    -277.895
  O     -191.951     -79.771    -278.518
  C     -190.472     -81.609    -278.216
  O     -191.675     -82.372    -278.124
  C     -189.900     -81.501    -279.633
  N     -189.901     -85.736    -282.386
  C     -190.747     -84.647    -282.452
  N     -191.784     -84.742    -283.311
  N     -190.587     -83.560    -281.745
  C     -189.509     -83.611    -280.922
  C     -188.589     -84.628    -280.782
  C     -188.787     -85.827    -281.563
  O     -188.092     -86.835    -281.532
  N     -187.614     -84.298    -279.878
  C     -187.959     -83.105    -279.437
  N     -189.122     -82.661    -280.014
  O     -189.442     -77.477    -274.308
  O     -189.672     -79.946    -274.904
  H     -191.461     -83.275    -278.429
  H     -190.031     -77.801    -273.599
  H     -190.074     -86.556    -282.948
  H     -187.425     -82.533    -278.691
  H     -190.689     -81.364    -280.376
  H     -189.741     -82.030    -277.517
  H     -192.002     -85.579    -283.834
  H     -190.774     -79.960    -276.819
  H     -192.446     -83.977    -283.345
  H     -189.909     -78.518    -279.094
  H     -188.018     -79.981    -277.206
  H     -187.584     -78.607    -278.237
  P     -193.269     -79.939    -277.613
  C     -192.997     -77.418    -277.028
  O     -193.232     -78.732    -276.563
  O     -192.944     -81.229    -276.722
  O     -194.534     -80.089    -278.393
  H     -193.773     -81.661    -276.440
  H     -193.876     -76.803    -276.820
  H     -192.788     -77.389    -278.101
  H     -192.139     -77.000    -276.491
  H     -185.624     -77.827    -274.123
  H     -187.105     -76.971    -273.765
  H     -186.551     -77.105    -275.416

 3  4  5  6  7  8  9  10  11  12  23  26  30  31 0
 6-311+G(2d,p)
 ****
 33  35  36  37  38 0
 6-311+G(2d,p)
 ****
 1  2  13  14  15  16  17  18  19  20  21  22  24  25 0
 3-21G
 ****
 27  28  29  32  34  39  40  41  42  43  44  45  46  47  48  49 0
 3-21G
 ****


