%nproc=1
%NoSave
%Mem=1900MB
#P OB98/GEN NMR

erre ene a

0 1
  C      111.189    -213.752     119.443
  O      111.128    -215.037     118.867
  H      111.102    -213.855     120.529
  H      110.358    -213.134     119.091
  H      112.141    -213.269     119.212
  P      111.187    -215.184     117.268
  C      113.636    -214.679     116.686
  O      112.679    -215.699     116.946
  C      115.061    -215.210     116.841
  O      116.010    -214.157     116.519
  C      115.386    -215.707     118.258
  O      116.033    -216.978     118.190
  C      116.361    -214.666     118.786
  O      117.206    -215.167     119.819
  C      117.066    -214.248     117.490
  N      117.794    -212.996     117.643
  C      118.947    -213.044     118.433
  O      119.299    -214.105     118.952
  N      119.641    -211.885     118.664
  C      119.196    -210.765     118.186
  N      119.914    -209.647     118.476
  C      117.969    -210.664     117.368
  C      117.326    -211.807     117.135
  O      110.761    -213.970     116.514
  O      110.295    -216.472     116.943
  H      117.700    -214.413     120.210
  H      109.995    -216.423     116.005
  H      117.638    -209.703     116.998
  H      116.415    -211.832     116.546
  H      117.769    -215.024     117.158
  H      115.798    -213.815     119.194
  H      114.506    -215.789     118.896
  H      115.220    -216.003     116.098
  H      120.745    -209.760     119.045
  H      113.459    -213.848     117.379
  H      119.655    -208.719     118.180
  H      113.496    -214.327     115.660
  P      115.402    -218.146     119.094
  C      113.843    -218.952     117.181
  O      114.861    -219.294     118.112
  O      114.072    -217.478     119.680
  O      116.310    -218.612     120.183
  H      114.175    -217.318     120.638
  H      113.587    -219.813     116.600
  H      114.197    -218.177     116.534
  H      112.978    -218.608     117.709

 6  7  8  9  10  11  12  13  14  15  16  26  30  31  32  33  35 0
 6-311+G(2d,p)
 ****
 37  38 0
 6-311+G(2d,p)
 ****
 1  2  3  4  5  17  18  19  20  21  22  23  24  25 0
 3-21G
 ****
 27  28  29  34  36  39  40  41  42  43  44  45  46 0
 3-21G
 ****


