%nproc=1
%NoSave
%Mem=1900MB
#P OB98/GEN NMR

erre ene a

0 1
  C      115.277     180.448      25.831
  O      114.336     180.638      24.797
  H      115.386     179.376      26.009
  H      114.920     180.923      26.749
  H      116.252     180.859      25.559
  P      114.219     182.081      24.114
  C      114.676     180.839      21.899
  O      114.946     181.988      22.688
  C      114.704     181.186      20.404
  O      113.492     181.907      20.067
  C      115.880     182.106      20.064
  O      116.316     181.944      18.717
  C      115.278     183.492      20.225
  O      115.979     184.497      19.493
  C      113.849     183.260      19.739
  N      112.278     188.092      20.149
  C      113.442     187.596      19.597
  N      114.300     188.510      19.083
  N      113.750     186.325      19.571
  C      112.835     185.536      20.184
  C      111.656     185.912      20.786
  C      111.311     187.318      20.778
  O      110.304     187.812      21.273
  N      110.994     184.829      21.308
  C      111.770     183.802      21.028
  N      112.888     184.177      20.323
  O      115.238     182.982      24.962
  O      112.845     182.678      24.093
  H      115.464     185.323      19.563
  H      115.007     183.925      24.879
  H      112.077     189.075      20.116
  H      111.564     182.774      21.295
  H      113.787     183.369      18.650
  H      115.330     183.769      21.282
  H      114.192     189.497      19.261
  H      116.728     181.969      20.731
  H      115.270     188.205      18.965
  H      114.704     180.268      19.806
  H      113.688     180.477      22.191
  H      115.391     180.047      22.125
  P      117.730     181.241      18.449
  C      116.784     178.860      17.790
  O      117.591     179.660      18.624
  O      118.619     181.687      19.699
  O      118.367     181.613      17.147
  H      119.363     182.246      19.406
  H      116.852     177.838      18.101
  H      117.120     178.948      16.778
  H      115.767     179.186      17.858

 6  7  8  9  10  11  12  13  14  15  26  29  33  34 0
 6-311+G(2d,p)
 ****
 36  38  39  40  41 0
 6-311+G(2d,p)
 ****
 1  2  3  4  5  16  17  18  19  20  21  22  23  24  25 0
 3-21G
 ****
 27  28  30  31  32  35  37  42  43  44  45  46  47 0
 3-21G
 ****
 48  49 0
 3-21G
 ****


