%nproc=1
%NoSave
%Mem=1900MB
#P OB98/GEN NMR

erre ene a

0 1
  C       86.252      88.758     358.177
  O       87.614      88.988     357.890
  H       85.752      89.721     358.304
  H       86.156      88.188     359.105
  H       85.775      88.217     357.357
  P       88.539      87.698     357.638
  C       89.928      88.775     355.718
  O       89.918      88.286     357.052
  C       89.466      90.234     355.680
  O       90.353      91.035     356.498
  C       89.463      90.834     354.273
  O       88.275      91.605     354.089
  C       90.693      91.722     354.242
  O       90.569      92.787     353.304
  C       90.815      92.147     355.711
  N       92.185      92.515     356.059
  C       92.616      93.787     355.673
  O       91.856      94.538     355.056
  N       93.907      94.160     355.944
  C       94.719      93.314     356.496
  N       95.992      93.737     356.718
  C       94.321      91.945     356.877
  C       93.055      91.617     356.636
  O       87.855      87.008     356.370
  O       88.699      86.791     358.812
  H       90.535      92.395     352.403
  H       88.192      86.090     356.233
  H       95.041      91.270     357.321
  H       92.674      90.630     356.882
  H       90.158      93.005     355.919
  H       91.566      91.123     353.954
  H       89.513      90.077     353.490
  H       88.474      90.298     356.140
  H       96.230      94.679     356.434
  H       89.255      88.162     355.110
  H       96.715      93.153     357.114
  H       90.943      88.701     355.316
  P       87.121      90.924     353.206
  C       85.153      92.296     354.183
  O       85.939      91.998     353.041
  O       86.505      89.818     354.183
  O       87.618      90.339     351.925
  H       86.868      88.937     353.976
  H       84.410      93.022     353.925
  H       85.781      92.687     354.956
  H       84.675      91.404     354.529

 6  7  8  9  10  11  12  13  14  15  16  26  30  31  32  33  35 0
 6-311+G(2d,p)
 ****
 37  38 0
 6-311+G(2d,p)
 ****
 1  2  3  4  5  17  18  19  20  21  22  23  24  25 0
 3-21G
 ****
 27  28  29  34  36  39  40  41  42  43  44  45  46 0
 3-21G
 ****


