%nproc=1
%NoSave
%Mem=1900MB
#P OB98/GEN NMR

erre ene a

0 1
  C      -23.204     -55.752      87.758
  O      -22.201     -55.285      86.869
  P      -21.474     -56.365      85.932
  C      -19.785     -56.765      87.850
  O      -20.675     -57.355      86.913
  C      -19.246     -57.810      88.821
  O      -20.352     -58.334      89.608
  C      -18.556     -59.004      88.145
  O      -17.354     -59.324      88.860
  C      -19.535     -60.148      88.356
  O      -18.888     -61.415      88.339
  C      -20.131     -59.755      89.707
  N      -22.211     -64.273      90.582
  C      -20.880     -63.913      90.511
  N      -19.978     -64.914      90.635
  N      -20.466     -62.687      90.331
  C      -21.477     -61.787      90.256
  C      -22.832     -62.019      90.321
  C      -23.275     -63.390      90.460
  O      -24.439     -63.784      90.440
  N      -23.543     -60.850      90.221
  C      -22.624     -59.913      90.093
  N      -21.356     -60.437      90.057
  O      -20.317     -55.507      85.233
  O      -22.347     -57.022      84.919
  H      -18.406     -61.479      87.492
  H      -20.398     -55.575      84.262
  H      -22.474     -65.237      90.705
  H      -22.828     -58.855      89.988
  H      -19.407     -59.933      90.513
  H      -20.287     -60.128      87.560
  H      -20.227     -65.874      90.811
  H      -18.324     -58.850      87.086
  H      -18.997     -64.667      90.609
  H      -18.564     -57.314      89.523
  H      -20.317     -55.991      88.413
  H      -18.956     -56.297      87.306
  P      -16.071     -59.673      87.960
  C      -16.839     -62.156      87.785
  O      -16.475     -60.969      87.110
  O      -15.012     -60.230      89.025
  O      -15.543     -58.515      87.181
  H      -14.103     -60.115      88.694
  H      -16.958     -62.000      88.863
  H      -16.065     -62.911      87.622
  H      -17.783     -62.523      87.377
  H      -23.598     -54.928      88.315
  H      -22.779     -56.467      88.431
  H      -23.991     -56.213      87.198

 3  4  5  6  7  8  9  10  11  12  23  26  30  31  33  0
 6-311+G(2d,p)
 ****
 35  36  37  38 0
 6-311+G(2d,p)
 ****
 1  2  13  14  15  16  17  18  19  20  21  22  24  25  27  28  29 0
 3-21G
 ****
 32  34  39  40  41  42  43  44  45  46  47  48  49 0
 3-21G
 ****


