%nproc=1
%NoSave
%Mem=1900MB
#P OB98/GEN NMR

erre ene a

0 1
  C     -893.320    -420.179    -177.394
  O     -894.650    -420.601    -177.576
  H     -893.120    -419.339    -178.067
  H     -892.640    -420.992    -177.641
  H     -893.150    -419.844    -176.372
  P     -895.270    -421.694    -176.580
  C     -896.090    -419.896    -174.915
  O     -895.280    -421.036    -175.109
  C     -896.090    -419.448    -173.451
  O     -894.680    -419.282    -173.036
  C     -896.800    -418.116    -173.177
  O     -897.320    -418.180    -171.846
  C     -895.640    -417.128    -173.289
  O     -895.960    -415.852    -172.826
  C     -894.570    -417.928    -172.524
  N     -893.210    -417.442    -172.657
  C     -892.850    -416.290    -171.951
  O     -893.610    -415.668    -171.195
  N     -891.550    -415.866    -172.101
  C     -890.600    -416.469    -172.886
  O     -889.450    -416.057    -172.976
  C     -891.030    -417.659    -173.634
  C     -892.310    -418.099    -173.483
  O     -894.660    -423.055    -176.660
  O     -896.820    -421.725    -176.964
  H     -897.010    -422.505    -177.521
  H     -896.230    -415.913    -171.882
  H     -891.270    -415.040    -171.592
  H     -890.320    -418.164    -174.259
  H     -892.650    -418.990    -173.996
  H     -894.840    -417.969    -171.445
  H     -895.350    -417.000    -174.342
  H     -897.610    -417.918    -173.890
  H     -896.500    -420.252    -172.836
  H     -897.130    -420.164    -175.211
  H     -895.740    -419.075    -175.566
  P     -898.680    -418.917    -171.456
  C     -897.410    -420.843    -170.287
  O     -898.370    -420.488    -171.264
  O     -899.800    -418.644    -172.390
  O     -899.030    -418.417    -169.962
  H     -900.000    -418.476    -169.817
  H     -897.302    -421.907    -170.264
  H     -897.732    -420.496    -169.328
  H     -896.470    -420.394    -170.531

 6  7  8  9  10  11  12  13  14  15  16  27  31  32  33  34  35 0
 6-311+G(2d,p)
 ****
 36  37 0
 6-311+G(2d,p)
 ****
 1  2  3  4  5  17  18  19  20  21  22  23  24  25 0
 3-21G
 ****
 26  28  29  30  38  39  40  41  42  43  44  45 0
 3-21G
 ****


