%nproc=1
%NoSave
%Mem=1900MB
#P OB98/GEN NMR

erre ene a

0 1
  C      128.690    -312.433    -141.022
  O      129.745    -312.384    -141.991
  P      129.999    -310.992    -142.751
  C      131.324    -309.660    -140.945
  O      130.099    -309.831    -141.646
  C      132.339    -308.921    -141.810
  O      131.888    -307.586    -142.124
  C      133.689    -308.738    -141.135
  O      134.438    -309.940    -141.181
  C      134.304    -307.602    -141.944
  O      135.052    -308.088    -143.067
  C      133.062    -306.798    -142.416
  N      132.980    -305.482    -141.808
  C      133.225    -304.397    -142.667
  O      133.516    -304.591    -143.842
  N      133.155    -303.127    -142.147
  C      132.898    -302.952    -140.880
  N      132.851    -301.672    -140.433
  C      132.654    -304.062    -139.950
  C      132.716    -305.295    -140.476
  O      128.599    -310.708    -143.466
  O      131.121    -311.040    -143.731
  H      135.245    -307.307    -143.620
  H      128.741    -310.235    -144.303
  H      132.452    -303.877    -138.902
  H      132.550    -306.176    -139.857
  H      133.085    -306.673    -143.506
  H      134.990    -307.003    -141.337
  H      133.543    -308.411    -140.091
  H      132.463    -309.478    -142.747
  H      133.018    -300.934    -141.105
  H      131.728    -310.630    -140.638
  H      132.664    -301.424    -139.466
  H      131.111    -309.098    -140.014
  P      135.497    -310.210    -140.014
  C      133.957    -310.746    -138.020
  O      134.742    -309.762    -138.662
  O      136.534    -309.002    -140.217
  O      136.169    -311.536    -139.987
  H      137.295    -309.110    -139.617
  H      133.678    -310.392    -137.020
  H      134.534    -311.681    -137.907
  H      133.044    -310.936    -138.595
  H      128.638    -313.415    -140.601
  H      127.760    -312.199    -141.496
  H      128.885    -311.722    -140.247

 3  4  5  6  7  8  9  10  11  12  13  21  23  27  28  29  30  32 0
 6-311+G(2d,p)
 ****
 34  35 0
 6-311+G(2d,p)
 ****
 1  2  14  15  16  17  18  19  20  22  24  25  26 0
 3-21G
 ****
 31  33  36  37  38  39  40  41  42  43  44  45  46 0
 3-21G
 ****


