%nproc=1
%NoSave
%Mem=1900MB
#P OB98/GEN NMR

erre ene a

0 1
  C     -138.978    -208.321    -498.439
  O     -137.835    -209.080    -498.776
  H     -139.751    -208.501    -499.190
  H     -138.731    -207.255    -498.435
  H     -139.362    -208.619    -497.458
  P     -136.640    -209.099    -497.701
  C     -136.125    -211.668    -497.538
  O     -136.736    -210.524    -496.972
  C     -135.360    -212.455    -496.474
  O     -134.313    -211.610    -495.933
  C     -136.234    -212.923    -495.307
  O     -135.759    -214.197    -494.869
  C     -135.959    -211.887    -494.229
  O     -136.237    -212.384    -492.923
  C     -134.483    -211.556    -494.502
  N     -134.093    -210.256    -493.962
  C     -133.956    -210.168    -492.572
  O     -134.172    -211.152    -491.865
  N     -133.618    -208.961    -492.013
  C     -133.495    -207.915    -492.770
  N     -133.185    -206.740    -492.151
  C     -133.673    -207.951    -494.234
  C     -133.959    -209.143    -494.759
  O     -137.178    -208.071    -496.597
  O     -135.300    -208.759    -498.261
  H     -137.173    -212.679    -492.894
  H     -138.114    -208.198    -496.373
  H     -133.569    -207.048    -494.821
  H     -134.100    -209.261    -495.825
  H     -133.829    -212.320    -494.061
  H     -136.582    -211.002    -494.392
  H     -137.291    -212.989    -495.571
  H     -134.863    -213.305    -496.956
  H     -133.092    -206.758    -491.142
  H     -135.437    -211.377    -498.338
  H     -133.118    -205.856    -492.631
  H     -136.911    -212.290    -497.978
  P     -136.730    -215.469    -494.940
  C     -134.969    -216.791    -496.295
  O     -136.326    -216.375    -496.198
  O     -138.189    -215.179    -494.806
  O     -136.229    -216.364    -493.702
  H     -137.020    -216.735    -493.266
  H     -134.840    -217.385    -497.176
  H     -134.711    -217.370    -495.433
  H     -134.335    -215.931    -496.349

 6  7  8  9  10  11  12  13  14  15  16  26  30  31  32  33  35 0
 6-311+G(2d,p)
 ****
 37  38 0
 6-311+G(2d,p)
 ****
 1  2  3  4  5  17  18  19  20  21  22  23  24  25 0
 3-21G
 ****
 27  28  29  34  36  39  40  41  42  43  44  45  46 0
 3-21G
 ****


