%nproc=1
%NoSave
%Mem=1900MB
#P OB98/GEN NMR

erre ene a

0 1
  C      -65.363    -386.575    -282.832
  O      -65.795    -387.856    -282.370
  P      -67.279    -388.184    -281.885
  C      -68.370    -388.634    -279.534
  O      -67.330    -388.021    -280.290
  C      -68.044    -388.741    -278.029
  O      -66.866    -389.570    -277.847
  C      -67.698    -387.367    -277.462
  O      -68.725    -386.479    -277.058
  C      -66.662    -387.650    -276.379
  O      -67.246    -387.781    -275.082
  C      -66.044    -388.978    -276.822
  N      -61.085    -388.674    -275.609
  C      -62.182    -388.738    -274.780
  N      -61.937    -388.673    -273.451
  N      -63.408    -388.853    -275.213
  C      -63.518    -388.821    -276.556
  C      -62.513    -388.740    -277.491
  C      -61.145    -388.678    -277.005
  O      -60.131    -388.632    -277.693
  N      -63.001    -388.718    -278.763
  C      -64.311    -388.761    -278.614
  N      -64.676    -388.837    -277.285
  O      -67.883    -389.429    -282.449
  O      -68.143    -386.934    -282.423
  H      -67.506    -386.892    -274.774
  H      -69.034    -387.279    -282.640
  H      -60.157    -388.613    -275.228
  H      -65.034    -388.749    -279.420
  H      -66.018    -389.697    -275.992
  H      -65.936    -386.827    -276.312
  H      -61.031    -388.461    -273.060
  H      -67.156    -386.819    -278.250
  H      -62.746    -388.495    -272.853
  H      -68.855    -389.239    -277.496
  H      -68.527    -389.630    -279.965
  H      -69.306    -388.084    -279.671
  P      -69.247    -385.203    -277.871
  C      -68.582    -382.737    -278.101
  O      -68.480    -383.917    -277.318
  O      -70.738    -384.976    -277.321
  O      -69.250    -385.348    -279.363
  H      -71.238    -384.395    -277.919
  H      -67.786    -382.049    -277.812
  H      -69.553    -382.266    -277.917
  H      -68.481    -382.968    -279.163
  H      -64.327    -386.622    -283.096
  H      -65.501    -385.851    -282.056
  H      -65.937    -386.293    -283.690

 3  4  5  6  7  8  9  10  11  12  23  26  30  31 0
 6-311+G(2d,p)
 ****
 33  35  36  37  38 0
 6-311+G(2d,p)
 ****
 1  2  13  14  15  16  17  18  19  20  21  22  24  25 0
 3-21G
 ****
 27  28  29  32  34  39  40  41  42  43  44  45  46  47  48  49 0
 3-21G
 ****


