%nproc=1
%NoSave
%Mem=1900MB
#P OB98/GEN NMR

erre ene a

0 1
  C     -234.075     -56.859      76.864
  O     -233.503     -57.555      75.775
  H     -235.113     -56.614      76.620
  H     -233.526     -55.927      77.032
  H     -234.061     -57.471      77.771
  P     -232.095     -58.278      76.029
  C     -231.061     -56.196      74.882
  O     -230.956     -57.144      75.932
  C     -229.762     -56.149      74.076
  O     -228.700     -55.654      74.933
  C     -229.324     -57.516      73.530
  O     -228.767     -57.335      72.224
  C     -228.231     -57.947      74.495
  O     -227.307     -58.861      73.903
  C     -227.617     -56.603      74.877
  N     -223.069     -56.853      77.040
  C     -223.418     -56.690      75.713
  N     -222.403     -56.589      74.827
  N     -224.656     -56.637      75.291
  C     -225.567     -56.717      76.294
  C     -225.347     -56.883      77.642
  C     -223.973     -56.970      78.094
  O     -223.601     -57.137      79.252
  N     -226.531     -56.955      78.333
  C     -227.463     -56.831      77.404
  N     -226.926     -56.679      76.152
  O     -231.882     -59.138      74.694
  O     -232.025     -59.138      77.249
  H     -227.816     -59.659      73.634
  H     -231.886     -60.090      74.911
  H     -222.099     -56.903      77.307
  H     -228.532     -56.856      77.578
  H     -226.888     -56.249      74.133
  H     -228.680     -58.433      75.369
  H     -221.429     -56.574      75.087
  H     -230.141     -58.241      73.483
  H     -222.637     -56.432      73.852
  H     -229.880     -55.421      73.265
  H     -231.258     -55.206      75.314
  H     -231.896     -56.469      74.228
  P     -229.796     -56.999      71.036
  C     -229.512     -59.315      69.908
  O     -230.409     -58.384      70.494
  O     -228.837     -56.523      69.845
  O     -230.799     -55.949      71.384
  H     -228.920     -55.558      69.717
  H     -230.053     -60.183      69.595
  H     -228.771     -59.597      70.626
  H     -229.036     -58.867      69.061

 6  7  8  9  10  11  12  13  14  15  26  29  33  34 0
 6-311+G(2d,p)
 ****
 36  38  39  40  41 0
 6-311+G(2d,p)
 ****
 1  2  3  4  5  16  17  18  19  20  21  22  23  24  25 0
 3-21G
 ****
 27  28  30  31  32  35  37  42  43  44  45  46  47 0
 3-21G
 ****
 48  49 0
 3-21G
 ****


