%nproc=1
%NoSave
%Mem=1900MB
#P OB98/GEN NMR

erre ene a

0 1
  C     -475.392    -879.478     263.339
  O     -475.181    -878.723     262.142
  P     -476.133    -879.023     260.895
  C     -474.520    -878.749     258.873
  O     -475.600    -878.169     259.627
  C     -474.094    -877.831     257.723
  O     -475.257    -877.586     256.866
  C     -473.619    -876.432     258.159
  O     -472.234    -876.261     258.451
  C     -473.911    -875.612     256.901
  O     -472.819    -875.761     255.958
  C     -475.174    -876.244     256.338
  N     -478.560    -872.755     254.699
  C     -477.458    -873.303     254.114
  N     -476.619    -874.225     254.623
  C     -476.998    -874.596     255.858
  C     -478.096    -874.147     256.577
  C     -478.899    -873.172     255.951
  N     -480.015    -872.613     256.547
  N     -478.166    -874.756     257.804
  C     -477.112    -875.553     257.842
  N     -476.379    -875.502     256.674
  O     -477.595    -878.936     261.130
  O     -475.708    -880.523     260.480
  H     -472.898    -875.007     255.333
  H     -476.508    -881.003     260.191
  H     -477.225    -872.941     253.115
  H     -476.850    -876.180     258.679
  H     -475.149    -876.327     255.241
  H     -473.990    -874.533     257.113
  H     -474.221    -876.051     258.990
  H     -473.330    -878.316     257.128
  H     -474.844    -879.719     258.466
  H     -480.506    -871.898     256.045
  H     -480.254    -872.883     257.487
  H     -473.704    -878.954     259.569
  P     -471.623    -876.680     259.883
  C     -469.934    -874.856     260.745
  O     -470.173    -875.988     259.940
  O     -471.638    -878.138     260.179
  O     -472.485    -875.781     260.897
  H     -472.297    -874.829     260.840
  H     -468.858    -874.686     260.817
  H     -470.332    -875.022     261.751
  H     -470.407    -873.982     260.297
  H     -474.687    -879.172     264.083
  H     -475.262    -880.520     263.131
  H     -476.386    -879.307     263.698

 3  4  5  6  7  8  9  10  11  12  22  25  29  30  31  32 0
 6-311+G(2d,p)
 ****
 33  36  37 0
 6-311+G(2d,p)
 ****
 1  2  13  14  15  16  17  18  19  20  21  23  24  26 0
 3-21G
 ****
 27  28  34  35  38  39  40  41  42  43  44  45  46  47  48 0
 3-21G
 ****


