%nproc=1
%NoSave
%Mem=1900MB
#P OB98/GEN NMR

erre ene a

0 1
  C       93.528    -148.517     -26.924
  O       93.803    -149.475     -27.924
  H       94.175    -147.649     -27.082
  H       93.741    -148.935     -25.937
  H       92.487    -148.187     -26.970
  P       92.815    -150.725     -28.090
  C       93.272    -151.442     -30.525
  O       93.502    -151.715     -29.151
  C       94.300    -150.441     -31.058
  O       95.637    -150.955     -30.778
  C       94.212    -150.200     -32.579
  O       94.607    -148.843     -32.820
  C       95.259    -151.173     -33.089
  O       95.600    -150.922     -34.426
  C       96.347    -150.963     -32.033
  N       97.384    -151.987     -32.053
  C       98.222    -152.027     -33.161
  O       98.151    -151.241     -34.103
  N       99.159    -153.026     -33.162
  C       99.329    -153.966     -32.189
  O      100.200    -154.826     -32.230
  C       98.394    -153.890     -31.056
  C       97.479    -152.919     -31.039
  O       91.389    -150.392     -28.370
  O       92.974    -151.519     -26.708
  H       92.244    -151.279     -26.108
  H       95.992    -150.027     -34.519
  H       99.776    -153.069     -33.959
  H       98.488    -154.635     -30.278
  H       96.771    -152.833     -30.222
  H       96.812    -149.979     -32.146
  H       94.875    -152.196     -33.050
  H       93.209    -150.366     -32.980
  H       94.200    -149.500     -30.503
  H       92.263    -151.028     -30.628
  H       93.332    -152.376     -31.094
  P       93.820    -147.859     -33.815
  C       93.249    -145.691     -32.542
  O       94.151    -146.337     -33.429
  O       92.355    -148.142     -33.900
  O       94.514    -148.052     -35.244
  H       93.836    -147.980     -35.942
  H       93.579    -144.689     -32.365
  H       93.217    -146.224     -31.615
  H       92.272    -145.673     -32.977

 6  7  8  9  10  11  12  13  14  15  16  27  31  32  33  34  35 0
 6-311+G(2d,p)
 ****
 36  37 0
 6-311+G(2d,p)
 ****
 1  2  3  4  5  17  18  19  20  21  22  23  24  25 0
 3-21G
 ****
 26  28  29  30  38  39  40  41  42  43  44  45 0
 3-21G
 ****


