%nproc=1
%NoSave
%Mem=1900MB
#P OB98/GEN NMR

erre ene a

0 1
  C      249.655    -243.657     -77.574
  O      249.731    -244.257     -78.852
  H      250.575    -243.096     -77.396
  H      249.560    -244.426     -76.802
  H      248.807    -242.967     -77.518
  P      248.463    -245.064     -79.409
  C      248.307    -247.045     -77.775
  O      247.778    -245.778     -78.143
  C      247.240    -247.892     -77.083
  O      247.131    -247.461     -75.703
  C      245.853    -247.786     -77.724
  O      245.226    -249.064     -77.676
  C      245.118    -246.821     -76.809
  O      243.702    -247.018     -76.841
  C      245.749    -247.135     -75.454
  N      243.145    -245.243     -71.557
  C      243.035    -246.461     -72.194
  N      242.068    -247.301     -71.748
  N      243.799    -246.832     -73.188
  C      244.730    -245.905     -73.524
  C      244.937    -244.662     -72.974
  C      244.074    -244.257     -71.879
  O      244.116    -243.185     -71.287
  N      245.961    -244.004     -73.606
  C      246.365    -244.843     -74.540
  N      245.646    -246.007     -74.538
  O      248.735    -245.976     -80.562
  O      247.416    -243.918     -79.794
  H      243.416    -246.899     -77.772
  H      247.423    -243.753     -80.755
  H      242.520    -245.007     -70.805
  H      247.170    -244.658     -75.246
  H      245.270    -247.990     -74.959
  H      245.326    -245.790     -77.112
  H      241.456    -247.088     -70.976
  H      245.890    -247.423     -78.759
  H      241.987    -248.206     -72.184
  H      247.583    -248.933     -77.064
  H      249.150    -246.878     -77.095
  H      248.672    -247.560     -78.673
  P      245.605    -250.156     -78.789
  C      243.365    -249.842     -80.027
  O      244.784    -249.813     -80.128
  O      245.541    -251.577     -78.348
  O      247.110    -249.743     -79.184
  H      247.593    -250.546     -79.463
  H      242.935    -249.599     -80.976
  H      243.045    -249.129     -79.297
  H      243.048    -250.821     -79.732

 6  7  8  9  10  11  12  13  14  15  26  29  33  34 0
 6-311+G(2d,p)
 ****
 36  38  39  40  41 0
 6-311+G(2d,p)
 ****
 1  2  3  4  5  16  17  18  19  20  21  22  23  24  25 0
 3-21G
 ****
 27  28  30  31  32  35  37  42  43  44  45  46  47 0
 3-21G
 ****
 48  49 0
 3-21G
 ****


