%nproc=1
%NoSave
%Mem=1900MB
#P OB98/GEN NMR

erre ene a

0 1
  C      -31.478    -122.282     129.048
  O      -32.782    -121.767     128.884
  H      -31.395    -122.723     130.044
  H      -30.750    -121.470     128.964
  H      -31.265    -123.053     128.302
  P      -33.222    -121.351     127.401
  C      -32.997    -118.832     127.963
  O      -32.599    -119.895     127.114
  C      -33.791    -117.789     127.174
  O      -32.900    -117.147     126.223
  C      -34.969    -118.376     126.385
  O      -36.065    -117.458     126.441
  C      -34.439    -118.453     124.963
  O      -35.480    -118.418     123.989
  C      -33.509    -117.245     124.922
  N      -32.093    -115.638     120.361
  C      -33.127    -115.216     121.175
  N      -33.906    -114.222     120.699
  N      -33.375    -115.727     122.353
  C      -32.491    -116.690     122.715
  C      -31.433    -117.197     121.999
  C      -31.186    -116.643     120.682
  O      -30.302    -116.990     119.905
  N      -30.794    -118.193     122.693
  C      -31.465    -118.284     123.827
  N      -32.499    -117.390     123.888
  O      -34.790    -121.064     127.553
  O      -32.955    -122.371     126.342
  H      -36.016    -117.612     124.158
  H      -35.297    -121.711     127.025
  H      -31.955    -115.218     119.456
  H      -31.254    -118.982     124.628
  H      -34.046    -116.308     124.723
  H      -33.877    -119.385     124.829
  H      -33.743    -113.750     119.822
  H      -35.292    -119.351     126.758
  H      -34.647    -113.870     121.294
  H      -34.131    -117.010     127.866
  H      -32.103    -118.362     128.388
  H      -33.613    -119.227     128.778
  P      -37.108    -117.643     127.649
  C      -38.278    -119.526     126.307
  O      -37.731    -119.121     127.554
  O      -38.325    -116.693     127.229
  O      -36.557    -117.267     128.984
  H      -38.342    -115.902     127.801
  H      -38.654    -120.524     126.390
  H      -37.517    -119.492     125.556
  H      -39.076    -118.866     126.036

 6  7  8  9  10  11  12  13  14  15  26  29  33  34 0
 6-311+G(2d,p)
 ****
 36  38  39  40  41 0
 6-311+G(2d,p)
 ****
 1  2  3  4  5  16  17  18  19  20  21  22  23  24  25 0
 3-21G
 ****
 27  28  30  31  32  35  37  42  43  44  45  46  47 0
 3-21G
 ****
 48  49 0
 3-21G
 ****


