%nproc=1
%NoSave
%Mem=1900MB
#P OB98/GEN NMR

erre ene a

0 1
  C      454.174    -277.085    -536.086
  O      454.618    -278.064    -535.140
  P      455.233    -277.577    -533.743
  C      457.758    -277.398    -534.227
  O      456.543    -276.691    -534.020
  C      458.975    -276.471    -534.061
  O      459.050    -276.010    -532.683
  C      460.305    -277.161    -534.401
  O      461.106    -276.397    -535.319
  C      460.928    -277.421    -533.043
  O      462.341    -277.552    -533.102
  C      460.374    -276.277    -532.183
  N      460.384    -276.604    -530.757
  C      461.587    -276.435    -530.092
  O      462.632    -276.115    -530.643
  N      461.571    -276.728    -528.749
  C      460.511    -277.230    -528.053
  O      460.559    -277.518    -526.860
  C      459.278    -277.448    -528.823
  C      459.271    -277.128    -530.126
  O      455.402    -278.639    -532.710
  O      454.171    -276.476    -533.250
  H      462.693    -277.607    -532.172
  H      454.071    -276.565    -532.278
  H      462.435    -276.593    -528.244
  H      458.427    -277.864    -528.323
  H      458.390    -277.291    -530.729
  H      460.977    -275.368    -532.313
  H      460.537    -278.366    -532.658
  H      460.145    -278.112    -534.917
  H      458.804    -275.600    -534.701
  H      457.770    -277.823    -535.235
  H      457.807    -278.251    -533.531
  P      461.724    -276.988    -536.676
  C      463.518    -278.714    -535.969
  O      462.190    -278.493    -536.410
  O      462.733    -276.131    -537.355
  O      460.427    -277.155    -537.613
  H      460.659    -276.895    -538.529
  H      463.776    -279.759    -536.194
  H      463.569    -278.564    -534.888
  H      464.232    -278.057    -536.479
  H      453.795    -277.577    -536.957
  H      454.995    -276.456    -536.361
  H      453.401    -276.490    -535.647

 3  4  5  6  7  8  9  10  11  12  13  23  28  29  30  31  32 0
 6-311+G(2d,p)
 ****
 33  34 0
 6-311+G(2d,p)
 ****
 1  2  14  15  16  17  18  19  20  21  22  24  25  26  27 0
 3-21G
 ****
 35  36  37  38  39  40  41  42  43  44  45 0
 3-21G
 ****


