%nproc=1
%NoSave
%Mem=1900MB
#P OB98/GEN NMR

erre ene a

0 1
  C       -8.424    -174.999     -47.662
  O       -8.096    -174.573     -48.970
  P       -9.069    -174.886     -50.201
  C       -8.734    -177.412     -49.940
  O       -8.626    -176.301     -50.820
  C       -8.469    -178.727     -50.671
  O       -8.663    -179.832     -49.745
  C       -9.377    -178.982     -51.883
  O       -8.593    -179.694     -52.846
  C      -10.445    -179.902     -51.315
  O      -11.126    -180.647     -52.319
  C       -9.602    -180.741     -50.363
  N       -9.744    -184.547     -46.952
  C       -8.815    -184.194     -47.866
  N       -8.863    -183.183     -48.757
  C      -10.013    -182.497     -48.639
  C      -11.065    -182.757     -47.774
  C      -10.892    -183.831     -46.882
  N      -11.814    -184.182     -45.920
  N      -12.098    -181.866     -47.993
  C      -11.676    -181.087     -48.969
  N      -10.396    -181.391     -49.345
  O       -9.209    -173.786     -51.199
  O      -10.474    -175.219     -49.509
  H      -10.475    -181.212     -52.777
  H      -11.091    -174.472     -49.636
  H       -7.915    -184.801     -47.883
  H      -12.247    -180.297     -49.436
  H       -9.028    -181.512     -50.889
  H      -11.190    -179.308     -50.771
  H       -9.797    -178.072     -52.324
  H       -7.415    -178.744     -50.975
  H       -9.750    -177.424     -49.534
  H      -11.532    -184.880     -45.249
  H      -12.542    -183.517     -45.670
  H       -8.030    -177.296     -49.108
  P       -8.313    -179.049     -54.286
  C      -10.669    -179.522     -55.169
  O       -9.287    -179.794     -55.315
  O       -6.878    -178.987     -54.692
  O       -8.960    -177.585     -54.170
  H       -8.606    -177.015     -54.882
  H      -11.075    -180.129     -54.356
  H      -11.183    -179.780     -56.099
  H      -10.841    -178.463     -54.951
  H       -7.653    -174.696     -46.984
  H       -8.514    -176.065     -47.646
  H       -9.353    -174.558     -47.366

 3  4  5  6  7  8  9  10  11  12  22  25  29  30  31  32 0
 6-311+G(2d,p)
 ****
 33  36  37 0
 6-311+G(2d,p)
 ****
 1  2  13  14  15  16  17  18  19  20  21  23  24  26 0
 3-21G
 ****
 27  28  34  35  38  39  40  41  42  43  44  45  46  47  48 0
 3-21G
 ****


