%nproc=1
%NoSave
%Mem=1900MB
#P OB98/GEN NMR

erre ene a

0 1
  C       42.694     110.736     405.855
  O       42.416     111.679     404.841
  H       42.808     109.752     405.397
  H       41.865     110.694     406.567
  H       43.620     110.987     406.379
  P       42.402     113.238     405.217
  C       44.909     113.664     404.785
  O       43.869     113.598     405.754
  C       45.696     114.962     404.956
  O       46.747     115.040     403.969
  C       44.860     116.223     404.772
  O       44.055     116.468     405.909
  C       45.955     117.253     404.528
  O       46.551     117.667     405.766
  C       46.960     116.436     403.677
  N       46.841     116.697     402.241
  C       47.785     117.561     401.688
  O       48.655     118.117     402.356
  N       47.679     117.771     400.341
  C       46.695     117.286     399.526
  O       46.615     117.552     398.330
  C       45.709     116.407     400.171
  C       45.826     116.157     401.476
  O       41.284     113.685     406.102
  O       42.352     113.968     403.791
  H       45.848     118.112     406.281
  H       41.438     114.252     403.601
  H       48.344     118.402     399.925
  H       44.912     116.008     399.559
  H       45.103     115.515     401.974
  H       47.991     116.669     403.982
  H       45.585     118.154     404.041
  H       44.247     116.144     403.867
  H       46.165     114.948     405.948
  H       44.460     113.638     403.786
  H       45.562     112.796     404.906
  P       43.076     117.732     405.962
  C       41.254     116.077     405.263
  O       41.785     117.382     405.074
  O       43.713     119.045     405.642
  O       42.505     117.720     407.454
  H       42.921     118.436     407.979
  H       40.402     115.944     404.630
  H       40.962     115.955     406.285
  H       41.999     115.350     405.016

 6  7  8  9  10  11  12  13  14  15  16  26  31  32  33  34  35 0
 6-311+G(2d,p)
 ****
 36  37 0
 6-311+G(2d,p)
 ****
 1  2  3  4  5  17  18  19  20  21  22  23  24  25 0
 3-21G
 ****
 27  28  29  30  38  39  40  41  42  43  44  45 0
 3-21G
 ****


