%nproc=1
%NoSave
%Mem=1900MB
#P OB98/GEN NMR

erre ene a

0 1
  C     -962.774    -892.940    -899.389
  O     -962.630    -893.300    -898.029
  P     -962.707    -892.160    -896.909
  C     -964.984    -892.670    -895.749
  O     -963.562    -892.670    -895.649
  C     -965.593    -893.920    -895.119
  O     -965.281    -895.110    -895.919
  C     -965.027    -894.200    -893.729
  O     -965.384    -893.310    -892.719
  C     -965.375    -895.690    -893.539
  O     -966.726    -895.850    -893.089
  C     -965.206    -896.240    -894.989
  N     -963.963    -896.990    -895.169
  C     -964.015    -898.330    -894.759
  O     -965.009    -898.820    -894.219
  N     -962.820    -899.020    -894.949
  C     -961.652    -898.530    -895.449
  O     -960.641    -899.220    -895.569
  C     -961.681    -897.110    -895.879
  C     -962.812    -896.410    -895.689
  O     -963.081    -890.800    -897.379
  O     -961.224    -892.160    -896.309
  H     -967.280    -895.470    -893.799
  H     -960.958    -891.240    -896.159
  H     -962.838    -900.000    -894.659
  H     -960.780    -896.700    -896.259
  H     -962.826    -895.380    -895.989
  H     -966.037    -896.890    -895.229
  H     -964.714    -896.170    -892.809
  H     -963.939    -894.150    -893.799
  H     -966.681    -893.830    -895.109
  H     -965.270    -892.620    -896.809
  H     -965.383    -891.760    -895.279
  P     -964.387    -892.810    -891.599
  C     -964.623    -890.220    -891.769
  O     -964.904    -891.380    -891.039
  O     -962.947    -892.920    -891.809
  O     -964.769    -893.780    -890.349
  H     -963.948    -893.930    -889.849
  H     -965.048    -889.390    -891.299
  H     -965.075    -890.290    -892.789
  H     -963.531    -890.110    -891.899
  H     -962.697    -893.815    -900.000
  H     -962.003    -892.249    -899.659
  H     -963.730    -892.484    -899.538

 3  4  5  6  7  8  9  10  11  12  13  23  28  29  30  31  32 0
 6-311+G(2d,p)
 ****
 33  34 0
 6-311+G(2d,p)
 ****
 1  2  14  15  16  17  18  19  20  21  22  24  25  26  27 0
 3-21G
 ****
 35  36  37  38  39  40  41  42  43  44  45 0
 3-21G
 ****


