%nproc=1
%NoSave
%Mem=1900MB
#P OB98/GEN NMR

erre ene a

0 1
  C       86.627     315.265    -210.364
  O       86.038     314.357    -211.273
  H       86.978     314.710    -209.488
  H       85.884     315.998    -210.044
  H       87.482     315.775    -210.821
  P       85.741     314.894    -212.758
  C       86.737     312.826    -213.968
  O       85.577     313.599    -213.703
  C       86.345     311.423    -214.433
  O       85.822     310.676    -213.304
  C       85.263     311.415    -215.531
  O       85.559     310.367    -216.471
  C       83.991     311.069    -214.776
  O       83.000     310.458    -215.609
  C       84.533     310.155    -213.675
  N       80.415     307.932    -211.797
  C       81.126     307.668    -212.959
  N       80.653     306.663    -213.740
  N       82.196     308.328    -213.316
  C       82.558     309.283    -212.419
  C       81.938     309.642    -211.243
  C       80.742     308.922    -210.874
  O       80.056     309.124    -209.874
  N       82.601     310.684    -210.630
  C       83.614     310.946    -211.432
  N       83.636     310.117    -212.533
  O       87.143     315.519    -213.210
  O       84.635     315.895    -212.864
  H       83.381     309.620    -215.945
  H       87.051     316.477    -213.339
  H       79.584     307.396    -211.578
  H       84.353     311.728    -211.280
  H       84.664     309.125    -214.020
  H       83.558     311.984    -214.347
  H       79.876     306.085    -213.500
  H       85.181     312.367    -216.063
  H       81.187     306.430    -214.571
  H       87.251     310.897    -214.776
  H       87.324     312.752    -213.042
  H       87.332     313.320    -214.744
  P       86.424     310.773    -217.764
  C       87.214     308.349    -218.237
  O       86.525     309.490    -218.728
  O       87.904     310.932    -217.181
  O       85.960     312.034    -218.423
  H       88.160     311.874    -217.149
  H       87.202     307.578    -218.979
  H       86.732     307.996    -217.349
  H       88.226     308.613    -218.013

 6  7  8  9  10  11  12  13  14  15  26  29  33  34 0
 6-311+G(2d,p)
 ****
 36  38  39  40  41 0
 6-311+G(2d,p)
 ****
 1  2  3  4  5  16  17  18  19  20  21  22  23  24  25 0
 3-21G
 ****
 27  28  30  31  32  35  37  42  43  44  45  46  47 0
 3-21G
 ****
 48  49 0
 3-21G
 ****


