%nproc=1
%NoSave
%Mem=1900MB
#P OB98/GEN NMR

erre ene a

0 1
  C     -894.130    -303.004     257.714
  O     -895.390    -303.094     258.371
  P     -896.660    -303.598     257.514
  C     -896.120    -306.164     257.495
  O     -896.190    -304.939     256.762
  C     -897.430    -306.962     257.292
  O     -897.500    -307.423     255.929
  C     -897.510    -308.209     258.163
  O     -897.890    -307.894     259.490
  C     -898.550    -309.034     257.415
  O     -899.870    -308.638     257.759
  C     -898.230    -308.675     255.942
  N     -897.510    -309.737     255.233
  C     -898.280    -310.675     254.582
  O     -899.500    -310.657     254.596
  N     -897.600    -311.676     253.936
  C     -896.240    -311.853     253.951
  O     -895.690    -312.805     253.395
  C     -895.460    -310.843     254.684
  C     -896.130    -309.853     255.299
  O     -896.760    -302.532     256.330
  O     -897.920    -303.713     258.289
  H     -900.000    -308.902     258.697
  H     -897.700    -302.385     256.103
  H     -898.130    -312.359     253.441
  H     -894.400    -310.943     254.706
  H     -895.580    -309.095     255.842
  H     -899.170    -308.484     255.406
  H     -898.460    -310.104     257.636
  H     -896.540    -308.746     258.140
  H     -898.270    -306.290     257.489
  H     -896.000    -305.937     258.556
  H     -895.260    -306.743     257.173
  P     -897.610    -309.010     260.618
  C     -895.220    -307.998     260.931
  O     -896.020    -309.135     260.703
  O     -898.110    -310.325     259.833
  O     -898.330    -308.736     261.905
  H     -897.930    -310.278     258.878
  H     -895.720    -307.285     261.594
  H     -895.020    -307.502     259.954
  H     -894.290    -308.315     261.388
  H     -893.391    -302.658     258.406
  H     -894.202    -302.317     256.897
  H     -893.850    -303.969     257.346

 3  4  5  6  7  8  9  10  11  12  13  23  28  29  30  31  32 0
 6-311+G(2d,p)
 ****
 33  34 0
 6-311+G(2d,p)
 ****
 1  2  14  15  16  17  18  19  20  21  22  24  25  26 0
 3-21G
 ****
 27  35  36  37  38  39  40  41  42  43  44  45 0
 3-21G
 ****


