%nproc=1
%NoSave
%Mem=1900MB
#P OB98/GEN NMR

erre ene a

0 1
  C       82.264      53.011     -12.481
  O       81.997      53.086     -13.866
  H       81.634      53.719     -11.938
  H       82.039      52.000     -12.132
  H       83.318      53.225     -12.287
  P       82.227      54.508     -14.572
  C       81.179      56.871     -14.390
  O       81.181      55.534     -13.910
  C       79.763      57.441     -14.336
  O       78.978      56.812     -15.379
  C       79.037      57.226     -12.997
  O       78.639      58.483     -12.442
  C       77.785      56.445     -13.366
  O       76.626      56.871     -12.654
  C       77.647      56.686     -14.864
  N       73.221      55.306     -16.977
  C       73.770      56.523     -16.768
  N       74.998      56.820     -16.298
  C       75.699      55.697     -16.059
  C       75.283      54.390     -16.245
  C       73.970      54.211     -16.711
  N       73.391      52.971     -16.872
  N       76.278      53.503     -15.879
  C       77.260      54.261     -15.439
  N       76.948      55.593     -15.510
  O       81.649      54.283     -16.048
  O       83.642      54.979     -14.599
  H       76.638      57.847     -12.657
  H       82.288      54.616     -16.705
  H       73.135      57.372     -17.002
  H       78.192      53.903     -15.019
  H       77.108      57.616     -15.084
  H       77.953      55.383     -13.148
  H       79.644      56.675     -12.270
  H       79.814      58.511     -14.571
  H       81.529      56.889     -15.428
  H       72.410      52.938     -17.097
  H       73.905      52.156     -16.572
  H       81.863      57.470     -13.780
  P       79.438      58.981     -11.137
  C       79.350      58.479      -8.585
  O       78.799      58.230      -9.871
  O       78.934      60.490     -10.963
  O       80.921      58.896     -11.266
  H       79.614      61.018     -10.505
  H       78.818      57.908      -7.853
  H       79.265      59.521      -8.356
  H       80.382      58.196      -8.578

 6  7  8  9  10  11  12  13  14  15  25  28  32  33  34  35 0
 6-311+G(2d,p)
 ****
 36  39  40 0
 6-311+G(2d,p)
 ****
 1  2  3  4  5  16  17  18  19  20  21  22  23  24 0
 3-21G
 ****
 26  27  29  30  31  37  38  41  42  43  44  45  46  47  48 0
 3-21G
 ****


