%nproc=1
%NoSave
%Mem=1900MB
#P OB98/GEN NMR

erre ene a

0 1
  C      180.337    -123.421    -172.391
  O      180.159    -124.657    -173.054
  P      181.135    -125.893    -172.753
  C      179.323    -126.754    -171.130
  O      180.177    -127.073    -172.227
  C      178.221    -127.801    -170.979
  O      177.376    -127.821    -172.147
  C      178.734    -129.225    -170.816
  O      179.206    -129.437    -169.498
  C      177.495    -130.029    -171.183
  O      176.600    -130.144    -170.066
  C      176.867    -129.163    -172.297
  N      177.132    -129.696    -173.628
  C      176.190    -130.607    -174.122
  O      175.227    -130.943    -173.431
  N      176.392    -131.153    -175.367
  C      177.449    -130.834    -176.045
  N      177.596    -131.418    -177.266
  C      178.480    -129.902    -175.548
  C      178.261    -129.378    -174.344
  O      182.306    -125.583    -171.886
  O      181.543    -126.396    -174.220
  H      176.387    -129.229    -169.791
  H      182.191    -125.780    -174.644
  H      179.352    -129.677    -176.146
  H      178.969    -128.686    -173.904
  H      175.779    -129.098    -172.166
  H      177.743    -131.046    -171.501
  H      179.528    -129.419    -171.547
  H      177.603    -127.519    -170.115
  H      176.884    -132.074    -177.557
  H      178.869    -125.776    -171.322
  H      178.399    -131.268    -177.860
  H      179.920    -126.683    -170.215
  P      180.258    -130.609    -169.204
  C      182.257    -129.050    -169.595
  O      181.615    -129.931    -168.694
  O      180.417    -131.613    -170.298
  O      179.680    -131.302    -167.880
  H      179.727    -132.273    -167.985
  H      182.950    -128.416    -169.035
  H      181.529    -128.413    -170.107
  H      182.819    -129.627    -170.332
  H      179.593    -122.727    -172.724
  H      181.310    -123.034    -172.612
  H      180.243    -123.566    -171.335

 3  4  5  6  7  8  9  10  11  12  13  23  27  28  29  30  32 0
 6-311+G(2d,p)
 ****
 34  35 0
 6-311+G(2d,p)
 ****
 1  2  14  15  16  17  18  19  20  21  22  24  25  26 0
 3-21G
 ****
 31  33  36  37  38  39  40  41  42  43  44  45  46 0
 3-21G
 ****


