%nproc=1
%NoSave
%Mem=1900MB
#P OB98/GEN NMR

erre ene a

0 1
  C     -124.820      -2.069     309.036
  O     -123.705      -2.945     309.233
  P     -122.649      -3.080     308.030
  C     -120.133      -2.361     307.893
  O     -121.430      -2.116     308.420
  C     -119.105      -1.477     308.594
  O     -119.424      -0.076     308.406
  C     -119.037      -1.677     310.098
  O     -118.370      -2.884     310.432
  C     -118.308      -0.407     310.526
  O     -116.893      -0.546     310.316
  C     -118.882       0.636     309.543
  N     -119.882       1.505     310.154
  C     -119.474       2.178     311.304
  O     -118.357       2.048     311.803
  N     -120.408       3.002     311.874
  C     -121.687       3.188     311.435
  O     -122.476       3.947     311.984
  C     -122.072       2.414     310.247
  C     -121.169       1.617     309.668
  O     -123.415      -2.305     306.861
  O     -122.290      -4.496     307.726
  H     -123.933      -1.549     307.182
  H     -116.475       0.247     310.713
  H     -120.130       3.508     312.701
  H     -123.090       2.514     309.885
  H     -121.433       1.035     308.789
  H     -118.077       1.268     309.148
  H     -118.460      -0.171     311.584
  H     -120.051      -1.681     310.523
  H     -118.123      -1.670     308.139
  H     -120.120      -2.148     306.820
  H     -119.896      -3.423     308.022
  P     -119.219      -3.973     311.261
  C     -121.512      -5.027     310.581
  O     -120.195      -4.684     310.208
  O     -120.187      -3.028     312.113
  O     -118.373      -4.891     312.081
  H     -120.568      -2.303     311.591
  H     -122.108      -5.165     309.672
  H     -121.976      -4.249     311.188
  H     -121.500      -5.970     311.137
  H     -125.437      -2.075     309.910
  H     -125.390      -2.401     308.194
  H     -124.466      -1.075     308.857

 3  4  5  6  7  8  9  10  11  12  13  24  28  29  30  31  32 0
 6-311+G(2d,p)
 ****
 33  34 0
 6-311+G(2d,p)
 ****
 1  2  14  15  16  17  18  19  20  21  22  23  25  26  27 0
 3-21G
 ****
 35  36  37  38  39  40  41  42  43  44  45 0
 3-21G
 ****


