%nproc=1
%NoSave
%Mem=1900MB
#P OB98/GEN NMR

erre ene a

0 1
  C     -301.903     -32.704     272.456
  O     -301.704     -34.101     272.569
  H     -302.328     -32.334     273.393
  H     -302.606     -32.490     271.644
  H     -300.949     -32.201     272.273
  P     -301.064     -34.838     271.294
  C     -298.720     -34.388     272.300
  O     -299.585     -34.224     271.185
  C     -297.931     -35.695     272.176
  O     -297.255     -35.759     270.909
  C     -296.850     -35.878     273.232
  O     -297.406     -36.350     274.453
  C     -295.978     -36.933     272.566
  O     -296.572     -38.234     272.734
  C     -296.030     -36.523     271.082
  N     -291.082     -36.571     269.694
  C     -291.865     -37.511     270.266
  N     -293.155     -37.416     270.650
  C     -293.643     -36.191     270.382
  C     -292.965     -35.127     269.805
  C     -291.623     -35.353     269.441
  N     -290.832     -34.390     268.852
  N     -293.787     -34.023     269.693
  C     -294.960     -34.433     270.149
  N     -294.910     -35.725     270.609
  O     -301.884     -34.812     270.051
  O     -300.781     -36.298     271.893
  H     -296.127     -38.843     272.112
  H     -300.470     -36.235     272.813
  H     -291.392     -38.475     270.440
  H     -295.865     -33.837     270.147
  H     -296.089     -37.396     270.421
  H     -294.976     -36.981     273.002
  H     -296.263     -34.960     273.370
  H     -298.648     -36.526     272.201
  H     -299.295     -34.390     273.231
  H     -289.844     -34.580     268.782
  H     -291.199     -33.453     268.780
  H     -298.035     -33.535     272.318
  P     -296.637     -36.127     275.843
  C     -298.499     -34.431     276.363
  O     -297.101     -34.691     276.400
  O     -295.160     -36.326     275.781
  O     -297.333     -37.150     276.853
  H     -296.668     -37.539     277.451
  H     -298.691     -33.454     276.755
  H     -299.013     -35.160     276.954
  H     -298.845     -34.484     275.352

 6  7  8  9  10  11  12  13  14  15  25  28  32  33  34  35 0
 6-311+G(2d,p)
 ****
 36  39  40 0
 6-311+G(2d,p)
 ****
 1  2  3  4  5  16  17  18  19  20  21  22  23  24 0
 3-21G
 ****
 26  27  29  30  31  37  38  41  42  43  44  45  46  47 0
 3-21G
 ****
 48 0
 3-21G
 ****


