%nproc=1
%NoSave
%Mem=1900MB
#P OB98/GEN NMR

erre ene a

0 1
  C     -125.511     -74.839      25.066
  O     -125.883     -76.216      24.959
  P     -124.789     -77.377      25.134
  C     -124.719     -78.035      27.609
  O     -125.252     -78.355      26.325
  C     -125.352     -78.844      28.749
  O     -126.774     -78.580      28.847
  C     -125.185     -80.365      28.632
  O     -125.078     -80.851      29.974
  C     -126.499     -80.788      28.003
  O     -126.770     -82.174      28.177
  C     -127.476     -79.829      28.700
  N     -128.722     -79.670      27.956
  C     -129.604     -80.753      27.959
  O     -129.294     -81.807      28.520
  N     -130.798     -80.639      27.283
  C     -131.038     -79.570      26.588
  N     -132.224     -79.521      25.920
  C     -130.099     -78.436      26.488
  C     -128.977     -78.548      27.200
  O     -123.378     -76.896      25.238
  O     -124.978     -78.285      23.824
  H     -126.575     -82.409      29.108
  H     -124.122     -78.692      23.587
  H     -130.331     -77.579      25.872
  H     -128.226     -77.769      27.196
  H     -127.719     -80.192      29.709
  H     -126.477     -80.583      26.924
  H     -124.317     -80.660      28.040
  H     -124.903     -78.494      29.687
  H     -132.830     -80.332      25.994
  H     -124.883     -76.967      27.796
  H     -132.461     -78.795      25.263
  H     -123.636     -78.197      27.595
  P     -123.819     -81.708      30.470
  C     -123.127     -79.856      32.096
  O     -123.484     -81.219      31.959
  O     -122.651     -81.706      29.536
  O     -124.391     -83.191      30.688
  H     -123.643     -83.821      30.716
  H     -123.133     -79.591      33.157
  H     -123.836     -79.211      31.566
  H     -122.123     -79.693      31.693
  H     -126.374     -74.224      24.920
  H     -124.779     -74.608      24.321
  H     -125.102     -74.654      26.037

 3  4  5  6  7  8  9  10  11  12  13  23  27  28  29  30  32 0
 6-311+G(2d,p)
 ****
 34  35 0
 6-311+G(2d,p)
 ****
 1  2  14  15  16  17  18  19  20  21  22  24  25  26 0
 3-21G
 ****
 31  33  36  37  38  39  40  41  42  43  44  45  46 0
 3-21G
 ****


