%nproc=1
%NoSave
%Mem=1900MB
#P OB98/GEN NMR

erre ene a

0 1
  C     -103.166      26.214     -31.096
  O     -103.106      25.790     -29.747
  P     -102.001      24.728     -29.288
  C     -103.617      22.802     -29.961
  O     -102.322      23.357     -30.054
  C     -103.632      21.347     -30.447
  O     -103.227      21.338     -31.838
  C     -102.660      20.419     -29.724
  O     -103.060      19.068     -29.962
  C     -101.363      20.700     -30.451
  O     -100.410      19.656     -30.279
  C     -101.838      20.932     -31.908
  N     -101.035      21.970     -32.581
  C      -99.931      21.536     -33.311
  O      -99.660      20.347     -33.471
  N      -99.102      22.518     -33.780
  C      -99.250      23.854     -33.547
  O      -98.356      24.678     -33.701
  C     -100.548      24.260     -32.983
  C     -101.360      23.312     -32.507
  O     -102.408      24.424     -27.771
  O     -100.591      25.199     -29.401
  H     -100.800      18.845     -30.681
  H     -101.876      24.970     -27.163
  H      -98.228      22.200     -34.183
  H     -100.768      25.316     -32.920
  H     -102.302      23.585     -32.039
  H     -101.769      20.013     -32.503
  H     -100.920      21.621     -30.049
  H     -102.576      20.607     -28.650
  H     -104.655      20.955     -30.390
  H     -104.313      23.411     -30.545
  H     -103.972      22.835     -28.925
  P     -102.783      17.989     -28.807
  C     -100.398      17.448     -29.594
  O     -101.197      17.990     -28.561
  O     -103.402      16.647     -29.003
  O     -103.343      18.717     -27.492
  H     -103.501      18.056     -26.793
  H      -99.422      17.940     -29.580
  H     -100.856      17.597     -30.576
  H     -100.258      16.378     -29.417
  H     -103.962      26.920     -31.213
  H     -103.343      25.369     -31.728
  H     -102.239      26.674     -31.367

 3  4  5  6  7  8  9  10  11  12  13  23  28  29  30  31  32 0
 6-311+G(2d,p)
 ****
 33  34 0
 6-311+G(2d,p)
 ****
 1  2  14  15  16  17  18  19  20  21  22  24  25  26  27 0
 3-21G
 ****
 35  36  37  38  39  40  41  42  43  44  45 0
 3-21G
 ****


