%nproc=1
%NoSave
%Mem=1900MB
#P OB98/GEN NMR

erre ene a

0 1
  C       26.686    -237.689    -142.125
  O       26.156    -236.495    -141.583
  H       27.536    -237.463    -142.773
  H       27.026    -238.328    -141.304
  H       25.917    -238.223    -142.690
  P       25.615    -235.415    -142.640
  C       27.466    -233.733    -141.977
  O       26.866    -234.480    -143.025
  C       28.191    -232.518    -142.551
  O       29.241    -232.993    -143.435
  C       27.287    -231.567    -143.353
  O       27.462    -230.215    -142.913
  C       27.796    -231.682    -144.778
  O       27.707    -230.459    -145.501
  C       29.240    -232.132    -144.581
  N       31.532    -231.480    -149.091
  C       31.476    -230.691    -147.993
  N       30.931    -230.965    -146.790
  C       30.431    -232.213    -146.768
  C       30.437    -233.140    -147.798
  C       31.001    -232.722    -149.014
  N       31.008    -233.504    -150.148
  N       29.823    -234.314    -147.402
  C       29.416    -234.084    -146.169
  N       29.749    -232.821    -145.749
  O       24.689    -234.460    -141.746
  O       24.860    -235.994    -143.788
  H       28.118    -230.608    -146.372
  H       23.775    -234.500    -142.087
  H       31.923    -229.706    -148.099
  H       28.844    -234.769    -145.558
  H       29.904    -231.284    -144.366
  H       27.209    -232.444    -145.308
  H       26.229    -231.835    -143.285
  H       28.680    -231.980    -141.730
  H       28.191    -234.363    -141.446
  H       31.328    -233.087    -151.006
  H       30.515    -234.389    -150.126
  H       26.689    -233.416    -141.273
  P       26.482    -229.717    -141.738
  C       24.927    -228.219    -143.184
  O       25.048    -229.394    -142.389
  O       27.071    -228.279    -141.356
  O       26.453    -230.627    -140.554
  H       27.287    -228.250    -140.405
  H       23.924    -228.136    -143.547
  H       25.602    -228.277    -144.012
  H       25.164    -227.361    -142.590

 6  7  8  9  10  11  12  13  14  15  25  28  32  33  34  35 0
 6-311+G(2d,p)
 ****
 36  39  40 0
 6-311+G(2d,p)
 ****
 1  2  3  4  5  16  17  18  19  20  21  22  23  24 0
 3-21G
 ****
 26  27  29  30  31  37  38  41  42  43  44  45  46  47  48 0
 3-21G
 ****


