%nproc=1
%NoSave
%Mem=1900MB
#P OB98/GEN NMR

erre ene a

0 1
  C      442.071    -896.450     116.682
  O      443.306    -896.850     117.279
  P      444.087    -898.110     116.691
  C      446.332    -899.200     117.338
  O      445.627    -897.980     117.139
  C      447.845    -898.980     117.078
  O      448.065    -898.810     115.641
  C      448.432    -897.770     117.741
  O      448.656    -898.020     119.116
  C      449.700    -897.570     116.901
  O      450.739    -898.470     117.346
  C      449.215    -897.970     115.505
  N      451.230    -893.880     113.218
  C      451.739    -894.780     114.088
  N      451.114    -895.810     114.692
  C      449.840    -895.880     114.313
  C      449.166    -895.040     113.444
  C      449.928    -894.010     112.850
  N      449.426    -893.160     111.879
  N      447.831    -895.420     113.309
  C      447.722    -896.460     114.089
  N      448.904    -896.820     114.664
  O      443.871    -898.390     115.238
  O      443.554    -899.350     117.586
  H      451.453    -898.470     116.685
  H      443.130    -900.000     117.020
  H      452.787    -894.620     114.344
  H      446.814    -897.040     114.274
  H      449.977    -898.590     114.963
  H      450.075    -896.570     116.971
  H      447.774    -896.890     117.585
  H      448.363    -899.920     117.355
  H      445.922    -899.970     116.678
  H      450.102    -892.530     111.431
  H      448.569    -893.400     111.421
  H      446.188    -899.520     118.383
  P      447.953    -897.100     120.228
  C      447.770    -897.080     122.787
  O      448.252    -897.770     121.659
  O      446.507    -896.800     119.977
  O      448.833    -895.780     120.252
  H      448.294    -895.020     120.473
  H      448.435    -896.210     123.003
  H      447.775    -897.760     123.625
  H      446.751    -896.700     122.615
  H      441.687    -895.595     117.197
  H      441.366    -897.253     116.748
  H      442.235    -896.203     115.654

 3  4  5  6  7  8  9  10  11  12  22  25  29  30  31  32 0
 6-311+G(2d,p)
 ****
 33  36  37 0
 6-311+G(2d,p)
 ****
 1  2  13  14  15  16  17  18  19  20  21  23  24  26 0
 3-21G
 ****
 27  28  34  35  38  39  40  41  42  43  44  45  46  47  48 0
 3-21G
 ****


