%nproc=1
%NoSave
%Mem=1900MB
#P OB98/GEN NMR

erre ene a

0 1
  C       97.257      61.878     885.297
  O       98.296      62.010     886.268
  P       97.941      62.757     887.634
  C       98.354      65.101     886.594
  O       97.440      64.233     887.228
  C       98.244      66.506     887.169
  O       96.946      67.089     886.873
  C       98.365      66.574     888.692
  O       99.713      66.553     889.128
  C       97.739      67.937     888.979
  O       98.694      68.980     888.719
  C       96.598      67.985     887.944
  N       92.190      69.706     889.788
  C       93.207      70.372     889.116
  N       93.035      71.711     888.966
  N       94.272      69.806     888.628
  C       94.304      68.463     888.864
  C       93.380      67.680     889.506
  C       92.203      68.338     890.045
  O       91.305      67.802     890.698
  N       93.758      66.365     889.537
  C       94.918      66.338     888.910
  N       95.315      67.611     888.517
  O       99.373      63.027     888.297
  O       97.037      61.996     888.554
  H       98.263      69.829     888.951
  H       99.278      63.232     889.249
  H       91.396      70.191     890.145
  H       95.507      65.459     888.722
  H       96.486      68.990     887.517
  H       97.415      68.053     890.010
  H       92.263      72.228     889.368
  H       97.763      65.791     889.179
  H       93.783      72.252     888.534
  H       99.007      67.145     886.695
  H       98.147      65.125     885.518
  H       99.375      64.724     886.728
  P      100.002      65.860     890.554
  C       98.926      67.883     891.779
  O       98.922      66.492     891.550
  O      101.383      66.533     891.009
  O      100.081      64.370     890.500
  H      101.861      65.942     891.598
  H       97.991      68.177     892.252
  H       99.023      68.439     890.835
  H       99.761      68.153     892.439
  H       97.634      61.361     884.439
  H       96.915      62.849     885.006
  H       96.444      61.325     885.718

 3  4  5  6  7  8  9  10  11  12  23  26  30  31 0
 6-311+G(2d,p)
 ****
 33  35  36  37  38 0
 6-311+G(2d,p)
 ****
 1  2  13  14  15  16  17  18  19  20  21  22  24  25 0
 3-21G
 ****
 27  28  29  32  34  39  40  41  42  43  44  45  46  47  48  49 0
 3-21G
 ****


