%nproc=1
%NoSave
%Mem=1900MB
#P OB98/GEN NMR

erre ene a

0 1
  C        1.736    -340.698    -262.203
  O        2.648    -339.972    -261.371
  P        3.118    -340.677    -260.000
  C        1.670    -339.313    -258.293
  O        1.872    -340.530    -258.992
  C        1.977    -339.476    -256.800
  O        1.163    -340.564    -256.254
  C        3.438    -339.784    -256.481
  O        3.756    -339.098    -255.261
  C        3.442    -341.289    -256.254
  O        4.555    -341.712    -255.476
  C        2.073    -341.469    -255.584
  N        1.594    -342.844    -255.633
  C        2.040    -343.704    -254.633
  O        2.860    -343.369    -253.778
  N        1.546    -344.981    -254.671
  C        0.730    -345.493    -255.647
  O        0.314    -346.648    -255.635
  C        0.385    -344.574    -256.743
  C        0.830    -343.314    -256.686
  O        4.192    -339.628    -259.462
  O        3.623    -342.068    -260.201
  H        3.960    -338.702    -259.640
  H        4.490    -342.678    -255.339
  H        1.830    -345.613    -253.939
  H       -0.211    -344.960    -257.559
  H        0.616    -342.613    -257.487
  H        2.125    -341.154    -254.531
  H        3.472    -341.809    -257.213
  H        4.125    -339.459    -257.269
  H        1.662    -338.556    -256.287
  H        0.631    -338.994    -258.404
  H        2.295    -338.533    -258.742
  P        4.221    -337.552    -255.351
  C        6.728    -337.847    -254.646
  O        5.796    -337.556    -255.660
  O        4.161    -337.153    -253.793
  O        3.361    -336.680    -256.208
  H        4.590    -337.806    -253.213
  H        7.707    -338.029    -255.104
  H        6.439    -338.748    -254.083
  H        6.815    -337.002    -253.960
  H        1.509    -340.119    -263.074
  H        0.835    -340.893    -261.659
  H        2.182    -341.625    -262.498

 3  4  5  6  7  8  9  10  11  12  13  24  28  29  30  31  32 0
 6-311+G(2d,p)
 ****
 33  34 0
 6-311+G(2d,p)
 ****
 1  2  14  15  16  17  18  19  20  21  22  23  25  26  27 0
 3-21G
 ****
 35  36  37  38  39  40  41  42  43  44  45 0
 3-21G
 ****


