%nproc=1
%NoSave
%Mem=1900MB
#P OB98/GEN NMR

erre ene a

0 1
  C     -382.649    -692.991    -372.649
  O     -382.877    -693.541    -373.935
  H     -382.020    -692.103    -372.757
  H     -382.137    -693.715    -372.021
  H     -383.602    -692.700    -372.187
  P     -383.856    -694.805    -374.023
  C     -385.850    -695.384    -375.581
  O     -384.605    -694.713    -375.444
  C     -386.677    -694.746    -376.699
  O     -386.848    -693.321    -376.418
  C     -386.062    -694.872    -378.107
  O     -387.122    -695.030    -379.055
  C     -385.427    -693.502    -378.324
  O     -385.232    -693.202    -379.708
  C     -386.471    -692.622    -377.629
  N     -385.848    -687.989    -379.532
  C     -386.469    -689.114    -380.068
  N     -387.000    -688.983    -381.308
  N     -386.543    -690.261    -379.454
  C     -386.008    -690.242    -378.199
  C     -385.370    -689.203    -377.542
  C     -385.261    -687.939    -378.272
  O     -384.714    -686.923    -377.853
  N     -384.934    -689.592    -376.312
  C     -385.299    -690.852    -376.208
  N     -385.950    -691.292    -377.332
  O     -385.001    -694.439    -372.965
  O     -383.230    -696.130    -373.718
  H     -384.690    -693.922    -380.096
  H     -384.800    -694.820    -372.093
  H     -385.811    -687.139    -380.050
  H     -385.123    -691.501    -375.347
  H     -387.372    -692.476    -378.233
  H     -384.467    -693.441    -377.810
  H     -387.013    -688.118    -381.835
  H     -385.344    -695.695    -378.212
  H     -387.479    -689.782    -381.707
  H     -387.687    -695.197    -376.691
  H     -386.406    -695.302    -374.641
  H     -385.668    -696.446    -375.806
  P     -387.398    -696.499    -379.651
  C     -389.104    -697.602    -381.285
  O     -388.678    -696.419    -380.621
  O     -387.959    -697.305    -378.380
  O     -386.178    -697.163    -380.236
  H     -387.753    -698.266    -378.469
  H     -389.961    -697.384    -381.888
  H     -389.358    -698.346    -380.560
  H     -388.313    -697.966    -381.907

 6  7  8  9  10  11  12  13  14  15  26  29  33  34 0
 6-311+G(2d,p)
 ****
 36  38  39  40  41 0
 6-311+G(2d,p)
 ****
 1  2  3  4  5  16  17  18  19  20  21  22  23  24  25 0
 3-21G
 ****
 27  28  30  31  32  35  37  42  43  44  45  46  47 0
 3-21G
 ****
 48  49 0
 3-21G
 ****


