%nproc=1
%NoSave
%Mem=1900MB
#P OB98/GEN NMR

erre ene a

0 1
  C      -94.209     -87.692     -19.507
  O      -93.584     -87.184     -18.344
  H      -93.759     -87.215     -20.382
  H      -95.280     -87.475     -19.502
  H      -94.048     -88.771     -19.576
  P      -94.250     -87.515     -16.922
  C      -94.901     -89.689     -15.696
  O      -94.523     -89.100     -16.938
  C      -96.009     -90.725     -15.890
  O      -97.207     -90.102     -16.401
  C      -95.674     -91.811     -16.898
  O      -94.635     -92.680     -16.508
  C      -97.048     -92.386     -17.206
  O      -97.470     -93.339     -16.231
  C      -97.935     -91.118     -17.127
  N      -98.347     -90.648     -18.445
  C      -99.394     -91.341     -19.040
  O      -99.946     -92.314     -18.524
  N      -99.772     -90.901     -20.279
  C      -99.188     -89.889     -20.982
  O      -99.562     -89.556     -22.100
  C      -98.059     -89.217     -20.318
  C      -97.696     -89.619     -19.097
  O      -95.454     -86.696     -16.565
  O      -93.040     -87.367     -15.888
  H      -98.372     -93.619     -16.480
  H      -93.370     -87.305     -14.958
  H     -100.541     -91.381     -20.721
  H      -97.563     -88.418     -20.851
  H      -96.867     -89.137     -18.585
  H      -98.842     -91.326     -16.543
  H      -97.079     -92.882     -18.179
  H      -95.328     -91.328     -17.822
  H      -96.249     -91.151     -14.910
  H      -95.268     -88.887     -15.045
  H      -94.026     -90.153     -15.230
  P      -93.816     -93.595     -17.524
  C      -92.630     -93.222     -19.823
  O      -93.609     -92.782     -18.891
  O      -94.225     -95.029     -17.613
  O      -92.334     -93.549     -16.880
  H      -91.922     -94.420     -17.047
  H      -92.626     -92.570     -20.671
  H      -92.861     -94.218     -20.140
  H      -91.666     -93.210     -19.360

 6  7  8  9  10  11  12  13  14  15  16  26  31  32  33  34  35 0
 6-311+G(2d,p)
 ****
 36  37 0
 6-311+G(2d,p)
 ****
 1  2  3  4  5  17  18  19  20  21  22  23  24  25 0
 3-21G
 ****
 27  28  29  30  38  39  40  41  42  43  44  45 0
 3-21G
 ****


