%nproc=1
%NoSave
%Mem=1900MB
#P OB98/GEN NMR

erre ene a

0 1
  C      274.690     -47.828     174.115
  O      274.701     -49.186     174.515
  P      275.948     -50.142     174.171
  C      274.885     -51.013     171.981
  O      275.942     -50.265     172.574
  C      275.425     -51.839     170.815
  O      275.680     -50.979     169.689
  C      276.740     -52.553     171.102
  O      276.537     -53.700     171.909
  C      277.234     -52.822     169.684
  O      276.570     -53.972     169.134
  C      276.780     -51.549     168.941
  N      277.857     -50.578     168.765
  C      278.579     -50.657     167.571
  O      278.306     -51.503     166.719
  N      279.587     -49.752     167.348
  C      279.864     -48.858     168.250
  N      280.824     -47.943     167.950
  C      279.164     -48.775     169.548
  C      278.178     -49.651     169.733
  O      275.960     -51.443     174.898
  O      277.232     -49.237     174.444
  H      275.641     -53.925     169.431
  H      277.557     -49.280     175.378
  H      279.442     -48.023     170.269
  H      277.604     -49.644     170.647
  H      276.373     -51.809     167.958
  H      278.313     -52.999     169.624
  H      277.438     -51.873     171.611
  H      274.651     -52.565     170.526
  H      281.155     -47.928     166.989
  H      274.132     -50.313     171.607
  H      280.898     -47.067     168.450
  H      274.425     -51.655     172.741
  P      277.813     -54.304     172.672
  C      278.106     -55.951     170.689
  O      278.717     -54.990     171.538
  O      277.200     -55.532     173.493
  O      278.521     -53.328     173.551
  H      277.078     -55.285     174.431
  H      278.775     -56.137     169.843
  H      277.150     -55.582     170.308
  H      277.959     -56.886     171.234
  H      273.779     -47.369     174.438
  H      274.761     -47.770     173.049
  H      275.522     -47.319     174.556

 3  4  5  6  7  8  9  10  11  12  13  23  27  28  29  30  32 0
 6-311+G(2d,p)
 ****
 34  35 0
 6-311+G(2d,p)
 ****
 1  2  14  15  16  17  18  19  20  21  22  24  25  26 0
 3-21G
 ****
 31  33  36  37  38  39  40  41  42  43  44  45  46 0
 3-21G
 ****


