%nproc=1
%NoSave
%Mem=1900MB
#P OB98/GEN NMR

erre ene a

0 1
  C     -369.151    -600.378      15.898
  O     -369.208    -601.730      16.296
  H     -368.137    -600.003      16.055
  H     -369.839    -599.783      16.510
  H     -369.410    -600.266      14.841
  P     -370.508    -602.564      15.871
  C     -369.277    -604.241      14.326
  O     -370.019    -604.053      15.520
  C     -367.781    -604.156      14.603
  O     -367.495    -604.819      15.863
  C     -366.906    -604.802      13.523
  O     -365.730    -604.009      13.340
  C     -366.524    -606.138      14.140
  O     -365.305    -606.659      13.606
  C     -366.456    -605.784      15.621
  N     -364.424    -610.220      16.878
  C     -363.943    -609.221      16.062
  N     -362.743    -609.427      15.490
  N     -364.587    -608.102      15.826
  C     -365.760    -608.011      16.496
  C     -366.354    -608.939      17.330
  C     -365.647    -610.180      17.559
  O     -366.027    -611.114      18.250
  N     -367.564    -608.490      17.789
  C     -367.709    -607.293      17.243
  N     -366.634    -606.959      16.453
  O     -370.888    -601.948      14.443
  O     -371.659    -602.485      16.816
  H     -364.604    -605.998      13.788
  H     -371.757    -601.507      14.491
  H     -363.905    -611.070      17.008
  H     -368.551    -606.645      17.367
  H     -365.496    -605.332      15.895
  H     -367.319    -606.875      13.943
  H     -362.173    -610.237      15.659
  H     -367.418    -604.921      12.571
  H     -362.351    -608.688      14.918
  H     -367.514    -603.098      14.741
  H     -369.557    -603.460      13.607
  H     -369.519    -605.224      13.898
  P     -365.424    -603.510      11.842
  C     -363.813    -601.610      12.569
  O     -363.970    -602.818      11.832
  O     -366.432    -602.273      11.660
  O     -365.642    -604.549      10.796
  H     -367.154    -602.526      11.051
  H     -362.805    -601.263      12.475
  H     -364.034    -601.790      13.600
  H     -364.482    -600.869      12.185

 6  7  8  9  10  11  12  13  14  15  26  29  33  34 0
 6-311+G(2d,p)
 ****
 36  38  39  40  41 0
 6-311+G(2d,p)
 ****
 1  2  3  4  5  16  17  18  19  20  21  22  23  24  25 0
 3-21G
 ****
 27  28  30  31  32  35  37  42  43  44  45  46  47 0
 3-21G
 ****
 48  49 0
 3-21G
 ****


