%nproc=1
%NoSave
%Mem=1900MB
#P OB98/GEN NMR

erre ene a

0 1
  C     -347.284    -300.046     724.946
  O     -345.996    -300.091     724.365
  H     -347.349    -299.157     725.581
  H     -347.457    -300.928     725.560
  H     -348.049    -299.969     724.168
  P     -345.611    -301.336     723.429
  C     -344.682    -299.839     721.541
  O     -344.396    -300.859     722.492
  C     -343.396    -299.409     720.826
  O     -342.619    -298.602     721.753
  C     -342.538    -300.608     720.386
  O     -342.178    -300.564     719.010
  C     -341.404    -300.613     721.418
  O     -340.204    -301.201     720.966
  C     -341.287    -299.131     721.819
  N     -340.713    -298.923     723.145
  C     -339.334    -299.034     723.272
  O     -338.556    -299.279     722.353
  N     -338.833    -298.836     724.537
  C     -339.564    -298.566     725.652
  O     -339.067    -298.394     726.764
  C     -341.030    -298.482     725.462
  C     -341.524    -298.667     724.240
  O     -346.749    -301.965     722.700
  O     -344.904    -302.372     724.430
  H     -339.557    -301.145     721.701
  H     -345.519    -303.109     724.627
  H     -337.837    -298.890     724.635
  H     -341.641    -298.287     726.339
  H     -342.595    -298.626     724.065
  H     -340.669    -298.589     721.098
  H     -341.738    -301.186     722.291
  H     -343.100    -301.546     720.475
  H     -343.664    -298.771     719.976
  H     -345.121    -298.996     722.075
  H     -345.406    -300.211     720.805
  P     -342.754    -301.539     717.885
  C     -342.694    -299.725     715.979
  O     -342.284    -301.010     716.454
  O     -344.186    -301.930     718.026
  O     -341.872    -302.886     718.066
  H     -342.456    -303.634     717.816
  H     -342.279    -299.555     715.008
  H     -342.348    -298.969     716.652
  H     -343.762    -299.690     715.921

 6  7  8  9  10  11  12  13  14  15  16  26  31  32  33  34  35 0
 6-311+G(2d,p)
 ****
 36  37 0
 6-311+G(2d,p)
 ****
 1  2  3  4  5  17  18  19  20  21  22  23  24  25 0
 3-21G
 ****
 27  28  29  30  38  39  40  41  42  43  44  45 0
 3-21G
 ****


