%nproc=1
%NoSave
%Mem=1900MB
#P OB98/GEN NMR

erre ene a

0 1
  C     -261.396    -213.861     137.637
  O     -260.526    -214.888     137.184
  P     -260.588    -215.314     135.639
  C     -262.190    -216.840     134.225
  O     -261.892    -216.235     135.466
  C     -263.711    -216.999     134.058
  O     -264.330    -215.682     134.070
  C     -264.146    -217.705     132.765
  O     -265.304    -218.485     133.072
  C     -264.504    -216.534     131.855
  O     -265.379    -216.912     130.804
  C     -265.123    -215.566     132.871
  N     -265.151    -214.174     132.411
  C     -266.041    -213.845     131.396
  O     -266.792    -214.650     130.848
  N     -266.027    -212.532     130.995
  C     -265.175    -211.558     131.452
  O     -265.192    -210.396     131.043
  C     -264.223    -211.981     132.486
  C     -264.259    -213.238     132.919
  O     -259.364    -216.348     135.557
  O     -260.507    -214.158     134.697
  H     -259.255    -216.876     136.362
  H     -265.647    -216.117     130.320
  H     -266.688    -212.251     130.289
  H     -263.521    -211.240     132.867
  H     -263.565    -213.582     133.684
  H     -266.142    -215.889     133.125
  H     -263.589    -216.123     131.408
  H     -263.360    -218.351     132.356
  H     -264.092    -217.548     134.940
  H     -261.728    -217.824     134.175
  H     -261.779    -216.230     133.414
  P     -265.276    -220.056     132.721
  C     -265.255    -221.457     130.501
  O     -265.173    -220.192     131.126
  O     -266.804    -220.443     133.011
  O     -264.310    -220.869     133.523
  H     -267.435    -219.832     132.603
  H     -265.501    -221.312     129.440
  H     -266.022    -222.081     130.959
  H     -264.282    -221.958     130.569
  H     -261.236    -213.693     138.682
  H     -262.412    -214.156     137.475
  H     -261.196    -212.960     137.096

 3  4  5  6  7  8  9  10  11  12  13  24  28  29  30  31  32 0
 6-311+G(2d,p)
 ****
 33  34 0
 6-311+G(2d,p)
 ****
 1  2  14  15  16  17  18  19  20  21  22  23  25  26  27 0
 3-21G
 ****
 35  36  37  38  39  40  41  42  43  44  45 0
 3-21G
 ****


