%nproc=1
%NoSave
%Mem=1900MB
#P OB98/GEN NMR

erre ene a

0 1
  C      -46.843     -34.668      -2.654
  O      -46.267     -33.395      -2.837
  H      -46.745     -35.230      -3.588
  H      -47.905     -34.583      -2.414
  H      -46.322     -35.213      -1.863
  P      -46.440     -32.290      -1.684
  C      -45.530     -33.648       0.293
  O      -45.258     -32.602      -0.632
  C      -44.339     -33.903       1.217
  O      -43.188     -34.304       0.429
  C      -43.926     -32.682       2.047
  O      -43.726     -33.076       3.406
  C      -42.609     -32.248       1.422
  O      -41.797     -31.513       2.332
  C      -42.049     -33.596       0.954
  N      -40.992     -33.460      -0.041
  C      -39.761     -32.980       0.418
  O      -39.621     -32.662       1.600
  N      -38.732     -32.834      -0.476
  C      -38.927     -33.092      -1.730
  N      -37.870     -32.917      -2.567
  C      -40.222     -33.556      -2.267
  C      -41.199     -33.722      -1.375
  O      -47.806     -32.217      -1.088
  O      -45.964     -30.922      -2.363
  H      -41.623     -32.076       3.118
  H      -46.327     -30.158      -1.851
  H      -40.339     -33.748      -3.323
  H      -42.181     -34.069      -1.678
  H      -41.653     -34.169       1.803
  H      -42.809     -31.609       0.553
  H      -44.659     -31.879       2.026
  H      -44.579     -34.757       1.860
  H      -36.999     -32.600      -2.159
  H      -45.778     -34.556      -0.268
  H      -37.907     -33.081      -3.562
  H      -46.394     -33.353       0.899
  P      -44.195     -32.023       4.524
  C      -46.334     -33.278       5.270
  O      -45.040     -32.822       5.632
  O      -45.295     -31.148       3.759
  O      -43.084     -31.179       5.055
  H      -44.909     -30.301       3.469
  H      -46.777     -33.789       6.099
  H      -46.257     -33.947       4.438
  H      -46.944     -32.442       5.000

 6  7  8  9  10  11  12  13  14  15  16  26  30  31  32  33  35 0
 6-311+G(2d,p)
 ****
 37  38 0
 6-311+G(2d,p)
 ****
 1  2  3  4  5  17  18  19  20  21  22  23  24  25 0
 3-21G
 ****
 27  28  29  34  36  39  40  41  42  43  44  45  46 0
 3-21G
 ****


