%nproc=1
%NoSave
%Mem=1900MB
#P OB98/GEN NMR

erre ene a

0 1
  C       66.373    -199.336     -35.312
  O       67.416    -199.913     -36.078
  P       68.851    -199.191     -36.037
  C       68.168    -196.708     -36.380
  O       68.727    -197.881     -36.959
  C       68.898    -195.451     -36.860
  O       68.251    -194.287     -36.291
  C       70.380    -195.405     -36.480
  O       71.090    -194.799     -37.561
  C       70.408    -194.470     -35.286
  O       71.688    -193.861     -35.123
  C       69.268    -193.500     -35.637
  N       68.741    -192.819     -34.458
  C       68.779    -191.420     -34.467
  O       69.311    -190.825     -35.405
  N       68.262    -190.737     -33.395
  C       67.843    -191.393     -32.358
  N       67.337    -190.671     -31.321
  C       67.901    -192.865     -32.258
  C       68.336    -193.506     -33.341
  O       69.769    -200.170     -36.908
  O       69.399    -198.973     -34.664
  H       72.353    -194.576     -35.006
  H       70.689    -200.165     -36.583
  H       67.573    -193.360     -31.354
  H       68.391    -194.588     -33.366
  H       69.613    -192.741     -36.353
  H       70.171    -195.025     -34.370
  H       70.796    -196.395     -36.271
  H       68.784    -195.385     -37.950
  H       67.322    -189.663     -31.409
  H       68.268    -196.765     -35.293
  H       66.990    -191.095     -30.472
  H       67.104    -196.654     -36.624
  P       72.127    -195.712     -38.376
  C       74.005    -194.966     -36.792
  O       73.558    -195.032     -38.131
  O       71.817    -195.271     -39.888
  O       72.042    -197.192     -38.217
  H       72.348    -195.812     -40.501
  H       75.039    -194.611     -36.783
  H       73.965    -195.953     -36.325
  H       73.386    -194.260     -36.228
  H       65.481    -199.915     -35.431
  H       66.196    -198.335     -35.647
  H       66.654    -199.323     -34.280

 3  4  5  6  7  8  9  10  11  12  13  21  23  27  28  29  30  32 0
 6-311+G(2d,p)
 ****
 34  35 0
 6-311+G(2d,p)
 ****
 1  2  14  15  16  17  18  19  20  22  24  25  26 0
 3-21G
 ****
 31  33  36  37  38  39  40  41  42  43  44  45  46 0
 3-21G
 ****


