%nproc=1
%NoSave
%Mem=1900MB
#P OB98/GEN NMR

erre ene a

0 1
  C      410.287    -114.688    -484.476
  O      411.063    -113.724    -483.764
  P      412.390    -113.207    -484.510
  C      414.751    -114.154    -485.011
  O      413.524    -114.327    -484.319
  C      415.824    -115.106    -484.473
  O      416.207    -114.741    -483.108
  C      415.384    -116.579    -484.433
  O      416.542    -117.372    -484.722
  C      414.967    -116.747    -482.980
  O      414.857    -118.106    -482.581
  C      416.060    -115.931    -482.299
  N      415.679    -117.759    -477.551
  C      415.990    -118.354    -478.728
  N      416.062    -117.795    -479.953
  C      415.785    -116.480    -479.890
  C      415.450    -115.736    -478.770
  C      415.397    -116.429    -477.548
  N      415.063    -115.844    -476.348
  N      415.210    -114.413    -479.111
  C      415.332    -114.383    -480.434
  N      415.758    -115.589    -480.928
  O      412.888    -111.992    -483.591
  O      412.158    -112.787    -485.925
  H      415.734    -118.537    -482.635
  H      412.615    -111.140    -483.974
  H      416.195    -119.419    -478.675
  H      415.124    -113.537    -481.059
  H      417.026    -116.453    -482.297
  H      413.985    -116.282    -482.832
  H      414.590    -116.819    -485.155
  H      416.727    -115.003    -485.097
  H      415.103    -113.120    -484.904
  H      415.052    -116.424    -475.530
  H      414.843    -114.865    -476.307
  H      414.583    -114.313    -486.081
  P      416.335    -118.864    -485.283
  C      416.352    -121.193    -484.202
  O      416.600    -119.811    -484.011
  O      417.698    -119.053    -486.104
  O      415.101    -119.103    -486.080
  H      418.469    -118.811    -485.569
  H      416.653    -121.728    -483.299
  H      416.943    -121.569    -485.047
  H      415.288    -121.356    -484.378
  H      409.433    -114.961    -483.892
  H      410.883    -115.557    -484.664
  H      409.964    -114.269    -485.406

 3  4  5  6  7  8  9  10  11  12  22  25  29  30  31  32 0
 6-311+G(2d,p)
 ****
 33  36  37 0
 6-311+G(2d,p)
 ****
 1  2  13  14  15  16  17  18  19  20  21  23  24  26 0
 3-21G
 ****
 27  28  34  35  38  39  40  41  42  43  44  45  46  47  48 0
 3-21G
 ****


