%nproc=1
%NoSave
%Mem=1900MB
#P OB98/GEN NMR

erre ene a

0 1
  C      -36.792     505.728    -178.393
  O      -38.217     505.694    -178.226
  P      -38.798     506.233    -176.823
  C      -40.430     507.942    -177.883
  O      -40.287     506.783    -177.071
  C      -41.870     508.071    -178.406
  O      -42.132     507.091    -179.453
  C      -42.944     507.884    -177.329
  O      -44.044     508.740    -177.652
  C      -43.367     506.442    -177.528
  O      -44.639     506.184    -176.950
  C      -43.303     506.344    -179.050
  N      -45.803     501.901    -179.372
  C      -46.152     503.102    -178.860
  N      -45.421     504.236    -178.796
  C      -44.216     504.051    -179.372
  C      -43.717     502.884    -179.926
  C      -44.565     501.756    -179.907
  N      -44.202     500.534    -180.402
  N      -42.416     503.070    -180.370
  C      -42.146     504.330    -180.085
  N      -43.212     504.969    -179.513
  O      -37.935     507.552    -176.555
  O      -38.657     505.253    -175.700
  H      -44.913     505.271    -177.174
  H      -37.303     507.404    -175.832
  H      -47.162     503.156    -178.443
  H      -41.201     504.821    -180.272
  H      -44.184     506.787    -179.533
  H      -42.632     505.765    -177.059
  H      -42.592     508.080    -176.308
  H      -41.972     509.077    -178.860
  H      -39.741     507.884    -178.742
  H      -44.863     499.770    -180.329
  H      -43.265     500.406    -180.762
  H      -40.127     508.826    -177.316
  P      -44.230     510.043    -176.727
  C      -44.919     511.600    -178.686
  O      -45.300     510.970    -177.479
  O      -42.848     510.833    -176.902
  O      -44.529     509.732    -175.294
  H      -42.678     511.387    -176.116
  H      -45.757     511.555    -179.385
  H      -44.045     511.116    -179.150
  H      -44.675     512.644    -178.480
  H      -36.537     505.346    -179.359
  H      -36.330     505.126    -177.638
  H      -36.447     506.737    -178.306

 3  4  5  6  7  8  9  10  11  12  22  25  29  30  31  32 0
 6-311+G(2d,p)
 ****
 33  36  37 0
 6-311+G(2d,p)
 ****
 1  2  13  14  15  16  17  18  19  20  21  23  24  26 0
 3-21G
 ****
 27  28  34  35  38  39  40  41  42  43  44  45  46  47  48 0
 3-21G
 ****


