%nproc=1
%NoSave
%Mem=1900MB
#P OB98/GEN NMR

erre ene a

0 1
  C     -238.435    -611.013     706.058
  O     -238.203    -611.501     707.366
  H     -239.239    -611.605     705.605
  H     -237.537    -611.120     705.447
  H     -238.747    -609.967     706.089
  P     -237.023    -610.848     708.230
  C     -238.935    -609.815     709.623
  O     -237.658    -609.607     709.023
  C     -239.322    -608.598     710.468
  O     -238.414    -608.531     711.591
  C     -239.221    -607.279     709.682
  O     -240.408    -606.501     709.727
  C     -237.940    -606.646     710.228
  O     -237.896    -605.239     710.136
  C     -237.868    -607.196     711.660
  N     -236.512    -607.220     712.214
  C     -236.178    -606.214     713.115
  O     -236.937    -605.327     713.496
  N     -234.893    -606.266     713.601
  C     -233.946    -607.184     713.273
  O     -232.814    -607.174     713.744
  C     -234.357    -608.208     712.302
  C     -235.600    -608.178     711.822
  O     -235.771    -610.537     707.481
  O     -236.756    -611.921     709.393
  H     -237.061    -604.941     710.554
  H     -235.955    -612.435     709.188
  H     -234.642    -605.543     714.261
  H     -233.628    -608.949     712.013
  H     -235.936    -608.917     711.099
  H     -238.491    -606.608     712.328
  H     -237.095    -607.034     709.650
  H     -239.087    -607.473     708.611
  H     -240.334    -608.750     710.866
  H     -238.868    -610.707     710.255
  H     -239.681    -609.980     708.841
  P     -241.792    -606.915     709.059
  C     -242.804    -607.704     711.350
  O     -242.500    -608.008     709.994
  O     -241.743    -607.207     707.597
  O     -242.713    -605.593     709.263
  H     -243.308    -605.552     708.486
  H     -243.270    -608.550     711.809
  H     -243.469    -606.867     711.387
  H     -241.901    -607.466     711.873

 6  7  8  9  10  11  12  13  14  15  16  26  31  32  33  34  35 0
 6-311+G(2d,p)
 ****
 36  37 0
 6-311+G(2d,p)
 ****
 1  2  3  4  5  17  18  19  20  21  22  23  24  25 0
 3-21G
 ****
 27  28  29  30  38  39  40  41  42  43  44  45 0
 3-21G
 ****


