%nproc=1
%NoSave
%Mem=1900MB
#P OB98/GEN NMR

erre ene a

0 1
  C     1663.201    -859.926     216.396
  O     1663.999    -858.789     216.146
  H     1662.966    -860.398     215.436
  H     1662.262    -859.633     216.874
  H     1663.731    -860.642     217.020
  P     1664.462    -857.874     217.376
  C     1667.016    -857.790     217.088
  O     1665.928    -858.403     217.778
  C     1667.785    -858.805     216.250
  O     1666.919    -859.326     215.210
  C     1669.027    -858.225     215.564
  O     1670.137    -859.108     215.754
  C     1668.649    -858.194     214.088
  O     1669.774    -858.224     213.226
  C     1667.714    -859.415     214.015
  N     1666.906    -859.403     212.802
  C     1666.953    -860.564     212.019
  O     1667.644    -861.529     212.372
  N     1666.260    -860.596     210.841
  C     1665.620    -859.544     210.447
  N     1664.973    -859.631     209.253
  C     1665.566    -858.286     211.226
  C     1666.219    -858.289     212.380
  O     1663.486    -857.801     218.508
  O     1664.773    -856.441     216.730
  H     1670.129    -859.147     213.206
  H     1664.718    -855.755     217.436
  H     1665.011    -857.436     210.844
  H     1666.236    -857.414     213.025
  H     1668.284    -860.355     214.052
  H     1668.085    -857.285     213.879
  H     1669.297    -857.231     215.924
  H     1668.045    -859.654     216.891
  H     1665.044    -860.508     208.743
  H     1667.675    -857.317     217.831
  H     1664.464    -858.868     208.830
  H     1666.604    -857.008     216.430
  P     1671.417    -858.478     216.499
  C     1671.996    -860.225     218.329
  O     1671.396    -858.981     218.021
  O     1671.059    -856.925     216.591
  O     1672.701    -858.720     215.765
  H     1671.654    -856.423     215.981
  H     1671.900    -860.417     219.377
  H     1673.033    -860.196     218.065
  H     1671.509    -861.002     217.778

 6  7  8  9  10  11  12  13  14  15  16  26  30  31  32  33  35 0
 6-311+G(2d,p)
 ****
 37  38 0
 6-311+G(2d,p)
 ****
 1  2  3  4  5  17  18  19  20  21  22  23  24  25 0
 3-21G
 ****
 27  28  29  34  36  39  40  41  42  43  44  45  46 0
 3-21G
 ****


