%nproc=1
%NoSave
%Mem=1900MB
#P OB98/GEN NMR

erre ene a

0 1
  C      173.235    -333.332      59.941
  O      172.126    -332.486      59.706
  P      170.960    -332.950      58.715
  C      169.006    -332.038      60.175
  O      169.718    -331.965      58.957
  C      167.848    -331.032      60.201
  O      168.413    -329.706      60.322
  C      166.992    -331.007      58.938
  O      165.751    -330.369      59.241
  C      167.811    -330.116      58.025
  O      167.033    -329.570      56.965
  C      168.406    -329.082      59.015
  N      169.773    -328.684      58.627
  C      169.915    -328.033      57.407
  O      168.959    -327.716      56.700
  N      171.200    -327.831      56.983
  C      172.321    -328.256      57.634
  O      173.424    -328.345      57.110
  C      172.115    -328.720      59.017
  C      170.866    -328.935      59.435
  O      170.478    -334.335      59.357
  O      171.369    -333.111      57.292
  H      167.610    -328.930      56.489
  H      170.914    -335.081      58.906
  H      171.302    -327.490      56.035
  H      172.986    -328.925      59.621
  H      170.684    -329.326      60.432
  H      167.792    -328.175      59.063
  H      168.615    -330.710      57.576
  H      166.816    -331.991      58.493
  H      167.227    -331.216      61.086
  H      169.691    -331.856      61.007
  H      168.607    -333.049      60.320
  P      164.398    -331.184      58.955
  C      163.143    -330.453      61.071
  O      163.219    -330.363      59.663
  O      164.440    -332.646      59.256
  O      164.136    -330.908      57.395
  H      163.523    -331.577      57.041
  H      162.708    -329.528      61.458
  H      164.134    -330.591      61.517
  H      162.500    -331.292      61.345
  H      173.907    -332.858      60.626
  H      173.741    -333.521      59.018
  H      172.896    -334.257      60.358

 3  4  5  6  7  8  9  10  11  12  13  23  28  29  30  31  32 0
 6-311+G(2d,p)
 ****
 33  34 0
 6-311+G(2d,p)
 ****
 1  2  14  15  16  17  18  19  20  21  22  24  25  26  27 0
 3-21G
 ****
 35  36  37  38  39  40  41  42  43  44  45 0
 3-21G
 ****


