%nproc=1
%NoSave
%Mem=1900MB
#P OB98/GEN NMR

erre ene a

0 1
  C      681.675    -203.276     -52.494
  O      682.158    -204.506     -52.998
  H      682.512    -202.573     -52.427
  H      681.251    -203.408     -51.496
  H      680.923    -202.859     -53.166
  P      681.117    -205.710     -53.181
  C      681.272    -205.527     -55.754
  O      680.427    -205.475     -54.613
  C      681.199    -206.906     -56.399
  O      679.849    -207.200     -56.803
  C      682.074    -207.051     -57.648
  O      683.422    -207.306     -57.279
  C      681.396    -208.242     -58.307
  O      681.786    -209.457     -57.639
  C      679.912    -207.939     -58.057
  N      677.554    -208.073     -62.545
  C      678.130    -209.097     -61.815
  N      678.115    -210.320     -62.386
  N      678.692    -208.927     -60.645
  C      678.695    -207.637     -60.235
  C      678.170    -206.538     -60.869
  C      677.504    -206.746     -62.139
  O      676.955    -205.869     -62.816
  N      678.419    -205.380     -60.178
  C      679.060    -205.787     -59.101
  N      679.264    -207.148     -59.095
  O      680.140    -205.923     -52.066
  O      682.042    -206.993     -53.423
  H      681.539    -209.348     -56.700
  H      682.230    -207.455     -52.583
  H      677.155    -208.265     -63.447
  H      679.397    -205.143     -58.294
  H      679.318    -208.849     -57.930
  H      681.668    -208.357     -59.359
  H      677.963    -210.448     -63.378
  H      681.981    -206.188     -58.308
  H      678.580    -211.072     -61.887
  H      681.475    -207.648     -55.635
  H      682.293    -205.311     -55.421
  H      680.972    -204.762     -56.480
  P      684.580    -207.358     -58.391
  C      685.746    -205.151     -57.715
  O      684.944    -205.823     -58.681
  O      684.249    -208.158     -59.605
  O      685.869    -207.875     -57.604
  H      685.950    -208.862     -57.585
  H      685.913    -204.142     -58.029
  H      686.685    -205.654     -57.619
  H      685.243    -205.152     -56.771

 6  7  8  9  10  11  12  13  14  15  26  29  33  34 0
 6-311+G(2d,p)
 ****
 36  38  39  40  41 0
 6-311+G(2d,p)
 ****
 1  2  3  4  5  16  17  18  19  20  21  22  23  24  25 0
 3-21G
 ****
 27  28  30  31  32  35  37  42  43  44  45  46  47 0
 3-21G
 ****
 48  49 0
 3-21G
 ****


