%nproc=1
%NoSave
%Mem=1900MB
#P OB98/GEN NMR

erre ene a

0 1
  C      268.521     399.399    -154.407
  O      267.188     399.471    -153.907
  P      266.838     398.748    -152.520
  C      266.514     400.900    -151.139
  O      265.901     399.728    -151.663
  C      265.552     402.088    -151.192
  O      265.454     402.637    -152.523
  C      264.131     401.726    -150.797
  O      264.024     401.546    -149.394
  C      263.350     402.907    -151.359
  O      263.402     404.029    -150.465
  C      264.140     403.221    -152.651
  N      263.471     402.775    -153.864
  C      263.087     403.773    -154.760
  O      263.283     404.961    -154.492
  N      262.472     403.410    -155.932
  C      262.254     402.153    -156.180
  N      261.645     401.846    -157.357
  C      262.633     401.067    -155.252
  C      263.224     401.447    -154.121
  O      268.003     398.177    -151.780
  O      265.818     397.596    -152.966
  H      264.319     404.070    -150.132
  H      265.908     396.840    -152.356
  H      262.435     400.038    -155.510
  H      263.530     400.715    -153.383
  H      264.297     404.309    -152.743
  H      262.296     402.664    -151.515
  H      263.830     400.803    -151.310
  H      265.939     402.870    -150.521
  H      261.386     402.608    -157.970
  H      267.418     401.126    -151.711
  H      261.477     400.897    -157.660
  H      266.840     400.700    -150.110
  P      262.732     400.774    -148.842
  C      263.803     398.508    -148.184
  O      263.229     399.719    -147.742
  O      262.306     399.846    -150.077
  O      261.607     401.658    -148.417
  H      261.335     399.753    -150.101
  H      264.360     398.063    -147.352
  H      264.498     398.671    -149.011
  H      263.017     397.814    -148.489
  H      268.583     399.930    -155.334
  H      268.788     398.375    -154.563
  H      269.192     399.839    -153.699

 3  4  5  6  7  8  9  10  11  12  13  23  27  28  29  30  32 0
 6-311+G(2d,p)
 ****
 34  35 0
 6-311+G(2d,p)
 ****
 1  2  14  15  16  17  18  19  20  21  22  24  25  26 0
 3-21G
 ****
 31  33  36  37  38  39  40  41  42  43  44  45  46 0
 3-21G
 ****


