%nproc=1
%NoSave
%Mem=1900MB
#P OB98/GEN NMR

erre ene a

0 1
  C     -267.885     151.736    -209.050
  O     -267.960     150.665    -209.982
  P     -269.369     149.924    -210.179
  C     -270.699     148.091    -208.918
  O     -269.546     148.915    -208.942
  C     -270.324     146.610    -208.924
  O     -269.733     146.273    -210.214
  C     -269.315     146.202    -207.847
  O     -269.625     144.859    -207.457
  C     -267.991     146.207    -208.593
  O     -267.001     145.426    -207.937
  C     -268.446     145.682    -209.949
  N     -263.550     145.509    -211.443
  C     -264.169     145.051    -210.333
  N     -265.476     145.136    -210.008
  C     -266.168     145.767    -210.972
  C     -265.674     146.323    -212.137
  C     -264.294     146.168    -212.373
  N     -263.660     146.623    -213.505
  N     -266.682     146.918    -212.865
  C     -267.771     146.727    -212.148
  N     -267.514     146.021    -211.005
  O     -269.085     148.951    -211.419
  O     -270.527     150.823    -210.446
  H     -266.151     145.549    -208.405
  H     -269.590     149.254    -212.197
  H     -263.531     144.552    -209.617
  H     -268.762     147.082    -212.403
  H     -268.571     144.590    -209.950
  H     -267.615     147.235    -208.672
  H     -269.308     146.862    -206.970
  H     -271.243     146.016    -208.834
  H     -271.300     148.305    -209.808
  H     -262.705     146.354    -213.663
  H     -264.232     146.944    -214.280
  H     -271.301     148.325    -208.034
  P     -269.431     144.488    -205.905
  C     -267.406     143.945    -204.374
  O     -267.867     144.245    -205.683
  O     -270.063     143.017    -205.799
  O     -270.089     145.440    -204.963
  H     -270.397     142.860    -204.900
  H     -266.548     143.273    -204.456
  H     -268.183     143.466    -203.773
  H     -267.085     144.869    -203.888
  H     -266.888     152.124    -209.032
  H     -268.146     151.380    -208.076
  H     -268.564     152.510    -209.341

 3  4  5  6  7  8  9  10  11  12  22  25  29  30  31  32 0
 6-311+G(2d,p)
 ****
 33  36  37 0
 6-311+G(2d,p)
 ****
 1  2  13  14  15  16  17  18  19  20  21  23  24  26 0
 3-21G
 ****
 27  28  34  35  38  39  40  41  42  43  44  45  46  47  48 0
 3-21G
 ****


