%nproc=1
%NoSave
%Mem=1900MB
#P OB98/GEN NMR

erre ene a

0 1
  C      -82.746     -83.151    -320.657
  O      -81.720     -83.529    -319.754
  P      -81.465     -82.609    -318.468
  C      -81.948     -84.461    -316.710
  O      -82.333     -83.205    -317.252
  C      -81.422     -84.296    -315.284
  O      -81.257     -85.604    -314.673
  C      -80.067     -83.583    -315.209
  O      -80.011     -82.803    -314.003
  C      -79.077     -84.719    -315.058
  O      -77.864     -84.280    -314.448
  C      -79.892     -85.699    -314.209
  N      -79.028     -89.968    -311.651
  C      -79.779     -88.868    -311.291
  N      -80.297     -88.874    -310.044
  N      -80.007     -87.855    -312.085
  C      -79.419     -87.983    -313.300
  C      -78.665     -89.034    -313.777
  C      -78.413     -90.141    -312.883
  O      -77.735     -91.132    -313.131
  N      -78.271     -88.820    -315.071
  C      -78.744     -87.627    -315.369
  N      -79.417     -87.063    -314.315
  O      -82.228     -81.253    -318.842
  O      -80.028     -82.348    -318.161
  H      -77.311     -85.074    -314.314
  H      -81.578     -80.562    -319.078
  H      -78.873     -90.721    -310.997
  H      -78.612     -87.116    -316.313
  H      -79.883     -85.420    -313.152
  H      -78.838     -85.139    -316.041
  H      -80.100     -89.592    -309.361
  H      -79.843     -82.943    -316.066
  H      -80.813     -88.059    -309.739
  H      -82.174     -83.763    -314.691
  H      -81.163     -84.892    -317.331
  H      -82.807     -85.142    -316.720
  P      -78.866     -81.677    -313.950
  C      -80.657     -79.991    -314.803
  O      -79.352     -80.517    -314.941
  O      -77.642     -82.355    -314.729
  O      -78.495     -81.244    -312.570
  H      -76.798     -81.968    -314.431
  H      -80.588     -78.933    -314.536
  H      -81.236     -80.514    -314.037
  H      -81.178     -80.079    -315.762
  H      -82.794     -83.858    -321.458
  H      -82.534     -82.179    -321.051
  H      -83.684     -83.130    -320.143

 3  4  5  6  7  8  9  10  11  12  23  26  30  31 0
 6-311+G(2d,p)
 ****
 33  35  36  37  38 0
 6-311+G(2d,p)
 ****
 1  2  13  14  15  16  17  18  19  20  21  22  24  25 0
 3-21G
 ****
 27  28  29  32  34  39  40  41  42  43  44  45  46  47  48  49 0
 3-21G
 ****


