%nproc=1
%NoSave
%Mem=1900MB
#P OB98/GEN NMR

erre ene a

0 1
  C      -56.183      20.887      56.907
  O      -57.482      20.318      56.869
  P      -58.483      20.457      58.117
  C      -58.412      19.654      60.573
  O      -57.803      19.601      59.290
  C      -58.067      18.395      61.363
  O      -58.679      17.249      60.738
  C      -56.577      18.082      61.435
  O      -55.922      18.927      62.368
  C      -56.611      16.603      61.799
  O      -56.858      16.439      63.204
  C      -57.829      16.105      60.993
  N      -57.454      15.441      59.750
  C      -57.229      14.063      59.821
  O      -57.355      13.454      60.883
  N      -56.897      13.390      58.672
  C      -56.776      14.037      57.553
  N      -56.512      13.309      56.434
  C      -56.949      15.497      57.445
  C      -57.289      16.128      58.567
  O      -59.901      20.098      57.826
  O      -58.287      21.957      58.625
  H      -56.059      16.756      63.669
  H      -58.881      22.607      58.175
  H      -56.825      15.994      56.493
  H      -57.454      17.197      58.567
  H      -58.426      15.412      61.597
  H      -55.683      16.072      61.558
  H      -56.112      18.208      60.450
  H      -58.484      18.499      62.374
  H      -56.576      12.301      56.524
  H      -59.497      19.709      60.442
  H      -56.687      13.682      55.509
  H      -58.073      20.554      61.096
  P      -54.402      19.332      62.060
  C      -52.317      17.910      61.461
  O      -53.559      17.967      62.140
  O      -53.967      20.147      63.366
  O      -54.216      20.127      60.810
  H      -53.991      21.106      63.192
  H      -51.776      17.025      61.805
  H      -51.716      18.797      61.677
  H      -52.484      17.823      60.385
  H      -55.678      20.685      55.986
  H      -55.630      20.460      57.718
  H      -56.261      21.945      57.046

 3  4  5  6  7  8  9  10  11  12  13  23  27  28  29  30  32 0
 6-311+G(2d,p)
 ****
 34  35 0
 6-311+G(2d,p)
 ****
 1  2  14  15  16  17  18  19  20  21  22  24  25  26 0
 3-21G
 ****
 31  33  36  37  38  39  40  41  42  43  44  45  46 0
 3-21G
 ****


