%nproc=1
%NoSave
%Mem=1900MB
#P OB98/GEN NMR

erre ene a

0 1
  C      229.530     294.872    -486.904
  O      228.829     294.613    -488.127
  P      228.809     295.642    -489.358
  C      226.231     295.529    -489.368
  O      227.420     295.496    -490.148
  C      225.083     294.788    -490.056
  O      224.966     293.445    -489.535
  C      223.708     295.415    -489.866
  O      223.552     296.560    -490.687
  C      222.796     294.244    -490.222
  O      222.638     294.127    -491.646
  C      223.586     293.044    -489.659
  N      223.051     292.570    -488.389
  C      222.650     291.235    -488.337
  O      222.704     290.530    -489.350
  N      222.175     290.733    -487.151
  C      222.043     291.519    -486.128
  N      221.577     290.967    -484.976
  C      222.372     292.957    -486.165
  C      222.864     293.411    -487.314
  O      230.018     295.565    -490.233
  O      228.702     297.091    -488.684
  H      221.908     293.497    -491.791
  H      229.156     297.739    -489.254
  H      222.216     293.581    -485.298
  H      223.139     294.449    -487.425
  H      223.578     292.216    -490.375
  H      221.796     294.345    -489.794
  H      223.564     295.677    -488.808
  H      225.326     294.711    -491.125
  H      221.368     289.976    -484.978
  H      225.947     296.578    -489.221
  H      221.439     291.488    -484.120
  H      226.440     295.084    -488.387
  P      222.902     297.891    -490.080
  C      220.736     297.864    -491.460
  O      221.961     298.530    -491.206
  O      223.855     298.842    -489.433
  O      221.839     297.336    -489.009
  H      221.766     297.979    -488.277
  H      220.039     298.572    -491.911
  H      220.301     297.477    -490.532
  H      220.912     297.035    -492.154
  H      229.399     294.046    -486.236
  H      229.143     295.761    -486.452
  H      230.572     295.002    -487.111

 3  4  5  6  7  8  9  10  11  12  13  23  27  28  29  30  32 0
 6-311+G(2d,p)
 ****
 34  35 0
 6-311+G(2d,p)
 ****
 1  2  14  15  16  17  18  19  20  21  22  24  25  26 0
 3-21G
 ****
 31  33  36  37  38  39  40  41  42  43  44  45  46 0
 3-21G
 ****


