%nproc=1
%NoSave
%Mem=1900MB
#P OB98/GEN NMR

erre ene a

0 1
  C      169.820    -417.295     369.349
  O      168.808    -416.331     369.549
  H      170.453    -416.968     368.522
  H      169.384    -418.261     369.101
  H      170.432    -417.385     370.251
  P      167.696    -416.677     370.660
  C      166.843    -414.243     370.265
  O      166.521    -415.623     370.359
  C      165.618    -413.391     370.589
  O      164.998    -413.843     371.819
  C      165.916    -411.912     370.817
  O      166.112    -411.194     369.606
  C      164.639    -411.493     371.520
  O      163.566    -411.404     370.564
  C      164.434    -412.681     372.485
  N      165.062    -412.476     373.793
  C      164.229    -412.052     374.828
  O      163.021    -411.864     374.635
  N      164.781    -411.812     376.068
  C      166.047    -412.006     376.260
  N      166.533    -411.746     377.503
  C      166.957    -412.465     375.194
  C      166.413    -412.682     374.003
  O      168.338    -416.111     372.011
  O      167.257    -418.104     370.723
  H      163.749    -410.620     370.014
  H      167.667    -416.142     372.740
  H      168.016    -412.602     375.404
  H      167.023    -413.019     373.177
  H      163.367    -412.887     372.634
  H      164.710    -410.520     372.009
  H      166.759    -411.770     371.490
  H      164.893    -413.539     369.791
  H      165.886    -411.373     378.193
  H      167.184    -414.040     369.239
  H      167.523    -411.722     377.710
  H      167.651    -414.001     370.957
  P      167.364    -410.185     369.550
  C      167.014    -410.222     366.978
  O      167.304    -409.443     368.132
  O      168.615    -411.166     369.405
  O      167.501    -409.282     370.734
  H      169.404    -410.809     369.869
  H      167.009    -409.591     366.114
  H      166.054    -410.682     367.090
  H      167.761    -410.979     366.862

 6  7  8  9  10  11  12  13  14  15  16  26  30  31  32  33  35 0
 6-311+G(2d,p)
 ****
 37  38 0
 6-311+G(2d,p)
 ****
 1  2  3  4  5  17  18  19  20  21  22  23  24  25 0
 3-21G
 ****
 27  28  29  34  36  39  40  41  42  43  44  45  46 0
 3-21G
 ****


