%nproc=1
%NoSave
%Mem=1900MB
#P OB98/GEN NMR

erre ene a

0 1
  C     -151.842    -138.441    -430.341
  O     -151.012    -138.253    -431.468
  H     -151.566    -137.711    -429.577
  H     -151.697    -139.444    -429.931
  H     -152.893    -138.296    -430.601
  P     -151.339    -139.064    -432.812
  C     -153.535    -137.748    -433.123
  O     -152.931    -139.030    -432.997
  C     -154.671    -137.809    -434.139
  O     -154.210    -138.414    -435.367
  C     -155.865    -138.641    -433.691
  O     -156.644    -137.941    -432.741
  C     -156.552    -138.892    -435.025
  O     -157.330    -137.752    -435.421
  C     -155.339    -139.087    -435.965
  N     -155.033    -140.494    -436.226
  C     -155.891    -141.167    -437.088
  O     -156.885    -140.642    -437.586
  N     -155.579    -142.477    -437.345
  C     -154.559    -143.179    -436.768
  O     -154.353    -144.370    -436.992
  C     -153.706    -142.428    -435.838
  C     -153.975    -141.142    -435.615
  O     -150.722    -140.418    -432.920
  O     -150.822    -138.088    -433.972
  H     -156.694    -137.053    -435.668
  H     -149.951    -138.388    -434.291
  H     -156.196    -142.981    -437.957
  H     -152.893    -142.958    -435.359
  H     -153.359    -140.570    -434.927
  H     -155.523    -138.595    -436.929
  H     -157.234    -139.743    -434.994
  H     -155.527    -139.604    -433.285
  H     -154.979    -136.780    -434.370
  H     -152.777    -137.034    -433.463
  H     -153.908    -137.436    -432.143
  P     -157.709    -138.709    -431.829
  C     -156.900    -137.982    -429.509
  O     -156.990    -139.058    -430.433
  O     -158.392    -139.863    -432.482
  O     -158.759    -137.573    -431.418
  H     -159.589    -137.695    -431.917
  H     -156.409    -138.316    -428.619
  H     -157.883    -137.638    -429.266
  H     -156.340    -137.182    -429.947

 6  7  8  9  10  11  12  13  14  15  16  26  31  32  33  34  35 0
 6-311+G(2d,p)
 ****
 36  37 0
 6-311+G(2d,p)
 ****
 1  2  3  4  5  17  18  19  20  21  22  23  24  25 0
 3-21G
 ****
 27  28  29  30  38  39  40  41  42  43  44  45 0
 3-21G
 ****


