%nproc=1
%NoSave
%Mem=1900MB
#P OB98/GEN NMR

erre ene a

0 1
  C      119.168     465.622     258.414
  O      120.088     466.491     257.781
  H      119.725     464.796     258.866
  H      118.472     465.210     257.680
  H      118.616     466.145     259.202
  P      119.537     467.846     257.120
  C      119.565     466.711     254.812
  O      120.000     467.823     255.578
  C      120.556     466.413     253.688
  O      120.503     467.490     252.717
  C      122.007     466.285     254.167
  O      122.645     465.253     253.411
  C      122.617     467.626     253.813
  O      124.028     467.549     253.612
  C      121.840     468.002     252.555
  N      124.684     472.015     251.387
  C      125.011     470.673     251.430
  N      126.288     470.348     251.149
  N      124.155     469.730     251.731
  C      122.906     470.194     251.979
  C      122.461     471.495     251.967
  C      123.418     472.532     251.649
  O      123.188     473.736     251.602
  N      121.127     471.565     252.296
  C      120.773     470.307     252.511
  N      121.821     469.441     252.339
  O      119.887     469.103     257.850
  O      117.958     467.625     257.035
  H      124.303     468.393     253.193
  H      117.504     468.089     257.765
  H      125.383     472.700     251.159
  H      119.784     469.979     252.796
  H      122.277     467.554     251.647
  H      122.425     468.346     254.621
  H      126.998     471.019     250.894
  H      122.086     466.063     255.238
  H      126.549     469.370     251.153
  H      120.235     465.502     253.169
  H      118.584     466.947     254.382
  H      119.462     465.836     255.465
  P      122.561     463.741     253.943
  C      125.111     463.452     254.205
  O      123.932     462.997     253.550
  O      121.312     463.000     253.595
  O      122.704     463.918     255.533
  H      122.216     463.195     255.973
  H      125.951     462.884     253.863
  H      125.003     463.327     255.262
  H      125.266     464.487     253.983

 6  7  8  9  10  11  12  13  14  15  26  29  33  34 0
 6-311+G(2d,p)
 ****
 36  38  39  40  41 0
 6-311+G(2d,p)
 ****
 1  2  3  4  5  16  17  18  19  20  21  22  23  24  25 0
 3-21G
 ****
 27  28  30  31  32  35  37  42  43  44  45  46  47 0
 3-21G
 ****
 48  49 0
 3-21G
 ****


