%nproc=1
%NoSave
%Mem=1900MB
#P OB98/GEN NMR

erre ene a

0 1
  C     -899.547     279.349    -486.934
  O     -898.157     279.229    -487.156
  P     -897.197     278.523    -486.077
  C     -896.647     280.832    -485.060
  O     -896.137     279.647    -485.648
  C     -895.617     281.478    -484.127
  O     -895.597     280.804    -482.847
  C     -894.177     281.417    -484.643
  O     -893.977     282.383    -485.662
  C     -893.397     281.631    -483.369
  O     -893.307     283.036    -483.072
  C     -894.247     280.922    -482.311
  N     -893.727     279.605    -481.942
  C     -892.637     279.617    -481.052
  O     -892.187     280.695    -480.649
  N     -892.087     278.425    -480.690
  C     -892.537     277.307    -481.197
  N     -891.917     276.153    -480.777
  C     -893.647     277.256    -482.157
  C     -894.177     278.437    -482.483
  O     -896.617     277.212    -486.496
  O     -898.147     278.431    -484.787
  H     -892.557     283.384    -483.644
  H     -898.827     277.716    -484.895
  H     -893.977     276.320    -482.545
  H     -895.007     278.486    -483.204
  H     -894.327     281.518    -481.413
  H     -892.357     281.249    -483.438
  H     -893.987     280.396    -485.035
  H     -895.917     282.532    -483.962
  H     -891.127     276.263    -480.145
  H     -897.547     280.560    -484.478
  H     -892.167     275.265    -481.130
  H     -896.947     281.521    -485.843
  P     -893.427     281.918    -487.097
  C     -890.977     281.671    -486.353
  O     -891.887     282.376    -487.216
  O     -894.277     282.311    -488.263
  O     -893.327     280.325    -486.974
  H     -893.687     279.912    -487.774
  H     -889.967     281.845    -486.746
  H     -891.197     280.607    -486.325
  H     -891.027     282.106    -485.370
  H     -900.000     279.846    -487.767
  H     -899.719     279.917    -486.044
  H     -899.976     278.375    -486.824

 3  4  5  6  7  8  9  10  11  12  13  23  27  28  29  30  32 0
 6-311+G(2d,p)
 ****
 34  35 0
 6-311+G(2d,p)
 ****
 1  2  14  15  16  17  18  19  20  21  22  24  25  26 0
 3-21G
 ****
 31  33  36  37  38  39  40  41  42  43  44  45  46 0
 3-21G
 ****


