%nproc=1
%NoSave
%Mem=1900MB
#P OB98/GEN NMR

erre ene a

0 1
  C      -23.527    -307.945     -17.783
  O      -23.386    -309.306     -18.210
  P      -22.998    -310.408     -17.111
  C      -22.113    -312.853     -17.131
  O      -22.344    -311.657     -17.865
  C      -21.557    -313.946     -18.052
  O      -22.597    -314.560     -18.848
  C      -20.520    -313.426     -19.053
  O      -19.226    -313.332     -18.462
  C      -20.534    -314.537     -20.091
  O      -19.744    -315.654     -19.634
  C      -22.020    -314.920     -20.137
  N      -22.467    -314.384     -25.148
  C      -21.616    -315.187     -24.408
  N      -20.761    -315.964     -25.109
  N      -21.598    -315.217     -23.104
  C      -22.525    -314.398     -22.534
  C      -23.418    -313.562     -23.160
  C      -23.413    -313.521     -24.606
  O      -24.133    -312.822     -25.314
  N      -24.185    -312.880     -22.248
  C      -23.770    -313.329     -21.078
  N      -22.751    -314.239     -21.192
  O      -24.428    -310.975     -16.657
  O      -22.225    -309.870     -15.950
  H      -18.843    -315.311     -19.474
  H      -24.377    -311.306     -15.740
  H      -22.428    -314.395     -26.150
  H      -24.176    -313.019     -20.118
  H      -22.176    -315.995     -20.270
  H      -20.111    -314.216     -21.048
  H      -20.752    -316.027     -26.119
  H      -20.841    -312.479     -19.499
  H      -20.157    -316.586     -24.586
  H      -21.088    -314.718     -17.427
  H      -23.045    -313.202     -16.674
  H      -21.435    -312.640     -16.303
  P      -18.602    -311.868     -18.249
  C      -16.510    -310.991     -16.994
  O      -17.164    -312.093     -17.595
  O      -19.492    -311.278     -17.051
  O      -18.648    -310.992     -19.454
  H      -19.577    -310.315     -17.143
  H      -15.624    -311.362     -16.461
  H      -17.162    -310.492     -16.279
  H      -16.182    -310.283     -17.764
  H      -23.786    -307.333     -18.622
  H      -22.603    -307.605     -17.365
  H      -24.298    -307.881     -17.044

 3  4  5  6  7  8  9  10  11  12  23  26  30  31 0
 6-311+G(2d,p)
 ****
 33  35  36  37  38 0
 6-311+G(2d,p)
 ****
 1  2  13  14  15  16  17  18  19  20  21  22  24  25 0
 3-21G
 ****
 27  28  29  32  34  39  40  41  42  43  44  45  46  47  48  49 0
 3-21G
 ****


