%nproc=1
%NoSave
%Mem=1900MB
#P OB98/GEN NMR

erre ene a

0 1
  C      492.003     352.239    1390.155
  O      493.279     351.656    1390.009
  H      491.997     352.852    1391.060
  H      491.240     351.467    1390.245
  H      491.790     352.882    1389.298
  P      493.486     350.685    1388.749
  C      493.223     352.755    1387.202
  O      492.758     351.448    1387.530
  C      492.615     353.218    1385.879
  O      493.104     352.431    1384.785
  C      491.095     353.122    1385.824
  O      490.502     354.256    1386.438
  C      490.859     353.116    1384.328
  O      490.913     354.465    1383.817
  C      492.057     352.310    1383.793
  N      489.600     348.921    1380.815
  C      489.502     350.264    1380.908
  N      490.146     351.099    1381.772
  C      490.979     350.422    1382.569
  C      491.176     349.034    1382.585
  C      490.454     348.286    1381.651
  N      490.556     346.908    1381.550
  N      492.099     348.695    1383.549
  C      492.489     349.834    1384.065
  N      491.805     350.903    1383.531
  O      493.101     349.258    1388.949
  O      495.040     350.924    1388.419
  H      491.067     354.403    1382.849
  H      495.266     351.873    1388.525
  H      488.810     350.739    1380.215
  H      493.268     349.955    1384.817
  H      492.454     352.734    1382.854
  H      489.880     352.715    1384.054
  H      490.726     352.176    1386.255
  H      492.953     354.250    1385.708
  H      494.325     352.761    1387.118
  H      489.861     346.432    1380.991
  H      491.090     346.420    1382.266
  H      492.942     353.426    1388.019
  P      488.941     354.279    1386.810
  C      489.329     353.603    1389.272
  O      488.775     353.216    1388.009
  O      488.029     354.092    1385.644
  O      488.716     355.687    1387.541
  H      487.776     355.903    1387.577
  H      489.161     352.826    1389.988
  H      488.859     354.504    1389.607
  H      490.381     353.768    1389.165

 6  7  8  9  10  11  12  13  14  15  25  28  32  33  34  35 0
 6-311+G(2d,p)
 ****
 36  39  40 0
 6-311+G(2d,p)
 ****
 1  2  3  4  5  16  17  18  19  20  21  22  23  24 0
 3-21G
 ****
 26  27  29  30  31  37  38  41  42  43  44  45  46  47 0
 3-21G
 ****
 48 0
 3-21G
 ****


