%nproc=1
%NoSave
%Mem=1900MB
#P OB98/GEN NMR

erre ene a

0 1
  C      -33.099     -82.786     132.712
  O      -33.083     -81.716     131.787
  H      -32.683     -83.674     132.228
  H      -34.127     -83.000     133.016
  H      -32.494     -82.541     133.589
  P      -33.493     -80.272     132.343
  C      -35.228     -79.614     130.485
  O      -33.957     -79.391     131.081
  C      -35.429     -78.657     129.312
  O      -35.494     -77.289     129.760
  C      -34.283     -78.658     128.314
  O      -34.230     -79.836     127.543
  C      -34.615     -77.408     127.513
  O      -35.654     -77.666     126.558
  C      -35.120     -76.458     128.628
  N      -34.131     -75.455     128.996
  C      -33.953     -74.410     128.081
  O      -34.618     -74.371     127.046
  N      -33.005     -73.455     128.351
  C      -32.315     -73.520     129.446
  N      -31.387     -72.549     129.649
  C      -32.490     -74.588     130.449
  C      -33.401     -75.515     130.160
  O      -32.080     -79.629     132.722
  O      -34.490     -80.276     133.455
  H      -35.904     -76.798     126.184
  H      -31.436     -79.647     131.995
  H      -31.899     -74.597     131.353
  H      -33.591     -76.334     130.841
  H      -36.030     -75.935     128.305
  H      -33.755     -77.038     126.954
  H      -33.331     -78.482     128.831
  H      -36.383     -78.906     128.830
  H      -31.279     -71.844     128.930
  H      -36.030     -79.498     131.220
  H      -30.770     -72.515     130.447
  H      -35.250     -80.651     130.134
  P      -32.891     -80.716     127.489
  C      -33.136     -80.470     124.938
  O      -32.830     -81.351     126.014
  O      -32.735     -81.703     128.595
  O      -31.730     -79.615     127.431
  H      -31.774     -79.017     126.664
  H      -33.063     -81.000     124.011
  H      -32.444     -79.654     124.937
  H      -34.131     -80.094     125.057

 6  7  8  9  10  11  12  13  14  15  16  26  30  31  32  33  35 0
 6-311+G(2d,p)
 ****
 37  38 0
 6-311+G(2d,p)
 ****
 1  2  3  4  5  17  18  19  20  21  22  23  24  25 0
 3-21G
 ****
 27  28  29  34  36  39  40  41  42  43  44  45  46 0
 3-21G
 ****


