%nproc=1
%NoSave
%Mem=1900MB
#P OB98/GEN NMR

erre ene a

0 1
  C      -40.638    -485.000    -176.613
  O      -41.066    -483.679    -176.350
  H      -40.556    -485.533    -175.662
  H      -39.657    -484.990    -177.092
  H      -41.360    -485.523    -177.246
  P      -41.416    -482.721    -177.588
  C      -42.577    -480.438    -177.906
  O      -42.251    -481.485    -177.000
  C      -43.811    -479.690    -177.409
  O      -44.979    -480.535    -177.502
  C      -43.725    -479.263    -175.949
  O      -42.889    -478.133    -175.794
  C      -45.194    -479.019    -175.636
  O      -45.612    -477.727    -176.107
  C      -45.877    -480.149    -176.437
  N      -46.238    -481.296    -175.606
  C      -47.525    -481.301    -175.078
  O      -48.330    -480.385    -175.252
  N      -47.851    -482.386    -174.310
  C      -47.000    -483.385    -173.932
  O      -47.317    -484.290    -173.167
  C      -45.646    -483.316    -174.498
  C      -45.332    -482.294    -175.298
  O      -42.029    -483.391    -178.771
  O      -40.007    -482.055    -177.959
  H      -45.054    -477.073    -175.643
  H      -39.657    -482.468    -178.772
  H      -48.774    -482.400    -173.905
  H      -44.947    -484.098    -174.235
  H      -44.337    -482.222    -175.721
  H      -46.789    -479.775    -176.917
  H      -45.398    -479.052    -174.567
  H      -43.367    -480.096    -175.334
  H      -43.973    -478.821    -178.060
  H      -42.787    -480.875    -178.889
  H      -41.720    -479.763    -177.993
  P      -42.229    -477.817    -174.372
  C      -40.220    -476.492    -173.471
  O      -40.876    -476.999    -174.630
  O      -42.095    -478.990    -173.454
  O      -43.203    -476.715    -173.739
  H      -43.582    -477.057    -172.906
  H      -39.334    -475.967    -173.763
  H      -39.957    -477.304    -172.826
  H      -40.876    -475.824    -172.953

 6  7  8  9  10  11  12  13  14  15  16  26  31  32  33  34  35 0
 6-311+G(2d,p)
 ****
 36  37 0
 6-311+G(2d,p)
 ****
 1  2  3  4  5  17  18  19  20  21  22  23  24  25 0
 3-21G
 ****
 27  28  29  30  38  39  40  41  42  43  44  45 0
 3-21G
 ****


