%nproc=1
%NoSave
%Mem=1900MB
#P OB98/GEN NMR

erre ene a

0 1
  C      261.312     130.745    -147.115
  O      262.198     131.478    -146.285
  P      263.752     131.083    -146.160
  C      263.678     129.339    -144.249
  O      263.963     130.677    -144.622
  C      263.789     129.175    -142.732
  O      263.355     127.837    -142.378
  C      265.208     129.364    -142.178
  O      265.083     129.978    -140.890
  C      265.712     127.941    -142.046
  O      266.781     127.822    -141.118
  C      264.424     127.217    -141.636
  N      264.483     125.782    -141.897
  C      264.076     124.918    -140.879
  O      263.705     125.356    -139.789
  N      264.097     123.566    -141.114
  C      264.567     123.113    -142.236
  N      264.511     121.770    -142.445
  C      265.107     123.986    -143.297
  C      265.013     125.292    -143.071
  O      264.701     132.110    -146.669
  O      263.860     129.669    -146.893
  H      266.516     128.259    -140.287
  H      263.982     129.751    -147.872
  H      265.513     123.557    -144.203
  H      265.361     126.008    -143.801
  H      264.214     127.390    -140.574
  H      266.071     127.588    -143.020
  H      265.832     129.995    -142.819
  H      263.096     129.881    -142.256
  H      263.977     121.226    -141.774
  H      264.409     128.683    -144.729
  H      264.545     121.385    -143.383
  H      262.680     129.061    -144.603
  P      265.918     131.319    -140.601
  C      268.028     130.326    -139.462
  O      266.834     131.064    -139.311
  O      264.779     132.289    -140.014
  O      266.573     131.961    -141.781
  H      265.039     133.216    -140.174
  H      268.522     130.259    -138.489
  H      268.704     130.828    -140.160
  H      267.812     129.314    -139.814
  H      260.332     131.170    -147.054
  H      261.279     129.726    -146.790
  H      261.656     130.785    -148.127

 3  4  5  6  7  8  9  10  11  12  13  23  27  28  29  30  32 0
 6-311+G(2d,p)
 ****
 34  35 0
 6-311+G(2d,p)
 ****
 1  2  14  15  16  17  18  19  20  21  22  24  25  26 0
 3-21G
 ****
 31  33  36  37  38  39  40  41  42  43  44  45  46 0
 3-21G
 ****


