%nproc=1
%NoSave
%Mem=1900MB
#P OB98/GEN NMR

erre ene a

0 1
  C      145.231    -266.334      63.964
  O      146.343    -265.592      64.416
  H      145.380    -267.385      64.229
  H      145.157    -266.253      62.877
  H      144.302    -265.985      64.422
  P      146.197    -264.007      64.577
  C      148.558    -263.948      63.524
  O      147.291    -263.307      63.627
  C      149.448    -263.272      62.480
  O      148.851    -263.415      61.171
  C      149.611    -261.771      62.728
  O      150.673    -261.433      63.612
  C      149.883    -261.247      61.319
  O      151.287    -261.282      61.007
  C      149.108    -262.221      60.419
  N      146.676    -259.778      56.639
  C      148.036    -259.997      56.797
  N      148.833    -259.466      55.849
  N      148.544    -260.659      57.805
  C      147.630    -261.043      58.725
  C      146.261    -260.863      58.683
  C      145.696    -260.196      57.525
  O      144.503    -259.995      57.331
  N      145.654    -261.355      59.820
  C      146.663    -261.747      60.574
  N      147.871    -261.649      59.921
  O      146.787    -263.726      66.043
  O      144.804    -263.472      64.457
  H      151.423    -260.805      60.162
  H      146.331    -262.960      66.436
  H      146.340    -259.290      55.830
  H      146.570    -262.143      61.579
  H      149.704    -262.510      59.543
  H      149.569    -260.200      61.225
  H      148.502    -258.877      55.101
  H      148.671    -261.333      63.078
  H      149.843    -259.442      56.027
  H      150.418    -263.783      62.446
  H      148.357    -264.981      63.238
  H      149.056    -263.966      64.493
  P      150.369    -260.928      65.097
  C      152.710    -259.786      65.418
  O      151.304    -259.671      65.402
  O      150.992    -262.083      66.010
  O      148.927    -260.684      65.414
  H      150.298    -262.698      66.308
  H      153.143    -258.833      65.641
  H      153.052    -260.118      64.460
  H      153.001    -260.494      66.165

 6  7  8  9  10  11  12  13  14  15  26  29  33  34 0
 6-311+G(2d,p)
 ****
 36  38  39  40  41 0
 6-311+G(2d,p)
 ****
 1  2  3  4  5  16  17  18  19  20  21  22  23  24  25 0
 3-21G
 ****
 27  28  30  31  32  35  37  42  43  44  45  46  47 0
 3-21G
 ****
 48  49 0
 3-21G
 ****


