%nproc=1
%NoSave
%Mem=1900MB
#P OB98/GEN NMR

erre ene a

0 1
  C     -228.121      -6.757      90.828
  O     -228.349      -6.029      89.639
  H     -229.066      -7.202      91.155
  H     -227.765      -6.080      91.610
  H     -227.393      -7.557      90.664
  P     -227.058      -5.551      88.818
  C     -226.280      -3.936      90.690
  O     -225.963      -5.068      89.895
  C     -225.084      -2.985      90.761
  O     -224.069      -3.577      91.614
  C     -224.440      -2.698      89.398
  O     -224.037      -1.326      89.357
  C     -223.209      -3.591      89.394
  O     -222.180      -3.101      88.534
  C     -222.833      -3.595      90.873
  N     -218.246      -5.652      90.500
  C     -218.696      -4.402      90.123
  N     -217.791      -3.578      89.551
  N     -219.929      -3.996      90.288
  C     -220.717      -4.913      90.905
  C     -220.389      -6.183      91.322
  C     -219.028      -6.632      91.108
  O     -218.576      -7.735      91.399
  N     -221.474      -6.819      91.874
  C     -222.452      -5.934      91.790
  N     -222.038      -4.761      91.216
  O     -227.544      -4.184      88.138
  O     -226.552      -6.518      87.797
  H     -221.414      -3.712      88.616
  H     -227.554      -4.284      87.166
  H     -217.288      -5.918      90.336
  H     -223.473      -6.092      92.118
  H     -222.249      -2.708      91.159
  H     -223.485      -4.598      89.060
  H     -216.815      -3.807      89.436
  H     -225.104      -2.909      88.557
  H     -218.091      -2.642      89.299
  H     -225.404      -2.057      91.249
  H     -226.539      -4.274      91.702
  H     -227.143      -3.418      90.258
  P     -225.182      -0.241      89.050
  C     -223.820       1.520      87.724
  O     -224.813       0.506      87.675
  O     -224.932       0.881      90.165
  O     -226.570      -0.788      89.127
  H     -225.639       0.844      90.838
  H     -223.678       1.927      86.745
  H     -222.899       1.101      88.073
  H     -224.135       2.295      88.391

 6  7  8  9  10  11  12  13  14  15  26  29  33  34 0
 6-311+G(2d,p)
 ****
 36  38  39  40  41 0
 6-311+G(2d,p)
 ****
 1  2  3  4  5  16  17  18  19  20  21  22  23  24  25 0
 3-21G
 ****
 27  28  30  31  32  35  37  42  43  44  45  46  47 0
 3-21G
 ****
 48  49 0
 3-21G
 ****


