%nproc=1
%NoSave
%Mem=1900MB
#P OB98/GEN NMR

erre ene a

0 1
  C     -545.077     159.478    -168.391
  O     -544.315     160.426    -167.625
  P     -542.756     160.139    -167.362
  C     -541.835     161.901    -169.064
  O     -541.924     161.468    -167.716
  C     -541.618     163.417    -169.117
  O     -542.788     164.115    -168.635
  C     -540.471     163.914    -168.247
  O     -539.208     163.657    -168.842
  C     -540.798     165.403    -168.140
  O     -540.331     166.118    -169.296
  C     -542.341     165.383    -168.096
  N     -542.868     165.615    -166.758
  C     -544.098     166.247    -166.679
  O     -544.715     166.662    -167.657
  N     -544.596     166.427    -165.411
  C     -543.956     166.108    -164.244
  O     -544.444     166.312    -163.140
  C     -542.622     165.517    -164.390
  C     -542.141     165.308    -165.618
  O     -542.377     159.176    -168.586
  O     -542.427     159.490    -166.055
  H     -540.676     165.645    -170.079
  H     -541.639     158.596    -168.330
  H     -545.500     166.866    -165.334
  H     -542.075     165.269    -163.492
  H     -541.154     164.869    -165.748
  H     -542.741     166.154    -168.770
  H     -540.337     165.868    -167.263
  H     -540.528     163.460    -167.252
  H     -541.461     163.704    -170.169
  H     -542.762     161.657    -169.585
  H     -541.011     161.373    -169.557
  P     -538.076     163.023    -167.893
  C     -538.085     160.569    -168.799
  O     -537.438     161.825    -168.744
  O     -538.985     162.304    -166.781
  O     -537.126     164.039    -167.357
  H     -539.819     161.964    -167.155
  H     -539.169     160.673    -168.766
  H     -537.747     159.946    -167.964
  H     -537.808     160.077    -169.737
  H     -546.089     159.816    -168.473
  H     -545.057     158.526    -167.902
  H     -544.652     159.385    -169.369

 3  4  5  6  7  8  9  10  11  12  13  23  28  29  30  31  32 0
 6-311+G(2d,p)
 ****
 33  34 0
 6-311+G(2d,p)
 ****
 1  2  14  15  16  17  18  19  20  21  22  24  25  26 0
 3-21G
 ****
 27  35  36  37  38  39  40  41  42  43  44  45 0
 3-21G
 ****


