%nproc=1
%NoSave
%Mem=1900MB
#P OB98/GEN NMR

erre ene a

0 1
  C     -209.345     -30.627     118.867
  O     -208.166     -29.877     119.091
  H     -209.401     -30.880     117.804
  H     -210.226     -30.037     119.138
  H     -209.315     -31.553     119.448
  P     -207.909     -29.373     120.594
  C     -207.696     -26.926     119.766
  O     -208.404     -27.845     120.589
  C     -208.631     -25.832     119.261
  O     -209.972     -26.341     119.131
  C     -208.721     -24.609     120.168
  O     -207.643     -23.724     119.920
  C     -210.050     -24.011     119.722
  O     -209.853     -23.247     118.517
  C     -210.899     -25.261     119.419
  N     -214.605     -23.818     122.666
  C     -213.799     -23.105     121.852
  N     -212.803     -23.545     121.059
  C     -212.668     -24.881     121.153
  C     -213.416     -25.742     121.949
  C     -214.429     -25.159     122.729
  N     -215.246     -25.895     123.565
  N     -212.993     -27.048     121.792
  C     -212.053     -26.979     120.876
  N     -211.794     -25.687     120.480
  O     -206.539     -29.624     121.135
  O     -209.096     -30.118     121.370
  H     -209.112     -22.634     118.688
  H     -209.914     -30.096     120.846
  H     -213.983     -22.035     121.837
  H     -211.539     -27.830     120.442
  H     -211.522     -25.115     118.526
  H     -210.474     -23.337     120.464
  H     -208.792     -24.898     121.228
  H     -208.295     -25.539     118.253
  H     -207.243     -27.453     118.914
  H     -215.806     -25.377     124.226
  H     -215.024     -26.870     123.706
  H     -206.887     -26.490     120.368
  P     -206.393     -23.639     120.919
  C     -206.492     -21.070     120.769
  O     -206.530     -22.203     121.633
  O     -205.073     -23.928     120.292
  O     -206.757     -24.658     122.095
  H     -205.953     -24.875     122.614
  H     -206.591     -20.176     121.349
  H     -207.296     -21.130     120.066
  H     -205.560     -21.053     120.244

 6  7  8  9  10  11  12  13  14  15  25  28  32  33  34  35 0
 6-311+G(2d,p)
 ****
 36  39  40 0
 6-311+G(2d,p)
 ****
 1  2  3  4  5  16  17  18  19  20  21  22  23  24 0
 3-21G
 ****
 26  27  29  30  31  37  38  41  42  43  44  45  46  47 0
 3-21G
 ****
 48 0
 3-21G
 ****


