%nproc=1
%NoSave
%Mem=1900MB
#P OB98/GEN NMR

erre ene a

0 1
  C     -898.430    -489.492    -670.034
  O     -898.370    -489.946    -668.700
  P     -898.390    -491.511    -668.370
  C     -896.310    -491.417    -666.871
  O     -896.880    -491.964    -668.056
  C     -895.170    -492.300    -666.351
  O     -895.700    -493.621    -666.031
  C     -894.010    -492.508    -667.335
  O     -892.810    -492.611    -666.542
  C     -894.310    -493.857    -667.951
  O     -893.180    -494.480    -668.530
  C     -894.900    -494.593    -666.745
  N     -894.810    -499.339    -668.617
  C     -893.830    -498.435    -668.413
  N     -893.940    -497.182    -667.936
  C     -895.210    -496.885    -667.649
  C     -896.330    -497.695    -667.831
  C     -896.100    -498.989    -668.322
  N     -897.080    -499.935    -668.515
  N     -897.470    -497.010    -667.478
  C     -897.070    -495.831    -667.079
  N     -895.710    -495.722    -667.111
  O     -899.100    -492.360    -669.368
  O     -899.100    -491.596    -666.928
  H     -892.480    -494.559    -667.842
  H     -900.000    -491.943    -667.028
  H     -892.830    -498.771    -668.662
  H     -897.700    -495.012    -666.782
  H     -894.110    -494.936    -666.057
  H     -895.070    -493.729    -668.740
  H     -893.910    -491.706    -668.077
  H     -894.810    -491.869    -665.409
  H     -897.090    -491.343    -666.121
  H     -896.780    -500.871    -668.741
  H     -897.990    -499.795    -668.059
  H     -895.940    -490.409    -667.079
  P     -891.390    -492.244    -667.191
  C     -891.440    -489.765    -666.537
  O     -891.470    -490.711    -667.611
  O     -890.920    -493.178    -668.259
  O     -890.400    -492.243    -665.931
  H     -889.480    -492.316    -666.241
  H     -892.440    -489.695    -666.099
  H     -891.140    -488.795    -666.922
  H     -890.730    -490.071    -665.757
  H     -898.405    -488.422    -670.048
  H     -899.337    -489.834    -670.487
  H     -897.593    -489.876    -670.579

 3  4  5  6  7  8  9  10  11  12  22  25  29  30  31  32 0
 6-311+G(2d,p)
 ****
 33  36  37 0
 6-311+G(2d,p)
 ****
 1  2  13  14  15  16  17  18  19  20  21  23  24  26 0
 3-21G
 ****
 27  28  34  35  38  39  40  41  42  43  44  45  46  47  48 0
 3-21G
 ****


