%nproc=1
%NoSave
%Mem=1900MB
#P OB98/GEN NMR

erre ene a

0 1
  C     -466.823    -383.049     845.710
  O     -467.355    -382.252     844.675
  H     -467.172    -382.656     846.669
  H     -465.731    -383.016     845.699
  H     -467.167    -384.084     845.614
  P     -466.982    -382.624     843.157
  C     -468.655    -384.572     843.528
  O     -468.219    -383.531     842.664
  C     -469.994    -385.122     843.054
  O     -471.086    -384.236     843.403
  C     -470.122    -385.297     841.546
  O     -469.391    -386.395     841.030
  C     -471.621    -385.492     841.425
  O     -471.972    -386.823     841.846
  C     -472.135    -384.428     842.420
  N     -472.479    -383.163     841.771
  C     -473.457    -383.216     840.773
  O     -473.981    -384.284     840.459
  N     -473.795    -382.054     840.112
  C     -473.190    -380.946     840.413
  N     -473.562    -379.826     839.730
  C     -472.140    -380.845     841.448
  C     -471.843    -381.979     842.083
  O     -465.626    -383.213     842.940
  O     -467.229    -381.271     842.339
  H     -471.402    -387.436     841.346
  H     -467.008    -381.446     841.391
  H     -471.649    -379.908     841.643
  H     -471.073    -381.995     842.851
  H     -473.022    -384.798     842.959
  H     -471.991    -385.368     840.402
  H     -469.849    -384.369     841.021
  H     -470.172    -386.065     843.582
  H     -474.282    -379.923     839.026
  H     -468.735    -384.164     844.541
  H     -473.090    -378.936     839.844
  H     -467.926    -385.387     843.526
  P     -468.991    -386.347     839.473
  C     -466.579    -385.430     839.920
  O     -467.394    -386.477     839.414
  O     -469.270    -384.819     839.077
  O     -469.725    -387.310     838.600
  H     -470.134    -384.729     838.636
  H     -465.548    -385.689     839.797
  H     -466.789    -385.285     840.959
  H     -466.786    -384.527     839.385

 6  7  8  9  10  11  12  13  14  15  16  26  30  31  32  33  35 0
 6-311+G(2d,p)
 ****
 37  38 0
 6-311+G(2d,p)
 ****
 1  2  3  4  5  17  18  19  20  21  22  23  24  25 0
 3-21G
 ****
 27  28  29  34  36  39  40  41  42  43  44  45  46 0
 3-21G
 ****


