%nproc=1
%NoSave
%Mem=1900MB
#P OB98/GEN NMR

erre ene a

0 1
  C       56.165      46.486      22.033
  O       57.180      46.634      23.012
  P       58.291      47.775      22.877
  C       60.209      48.331      21.172
  O       59.194      47.451      21.602
  C       61.124      47.591      20.187
  O       62.022      46.718      20.901
  C       60.321      46.742      19.205
  O       60.083      47.457      18.003
  C       61.204      45.524      19.021
  O       62.246      45.797      18.065
  C       61.807      45.357      20.437
  N       61.006      44.649      21.454
  C       61.180      43.280      21.636
  O       61.996      42.607      21.014
  N       60.350      42.693      22.559
  C       59.425      43.340      23.325
  O       58.537      42.782      23.959
  C       59.482      44.804      23.282
  C       60.238      45.381      22.349
  O       59.267      47.476      24.107
  O       57.777      49.178      22.897
  H       61.897      45.569      17.186
  H       59.065      48.065      24.859
  H       60.375      41.679      22.595
  H       58.865      45.362      23.974
  H       60.266      46.465      22.273
  H       62.783      44.862      20.392
  H       60.640      44.683      18.621
  H       59.376      46.423      19.665
  H       61.731      48.328      19.645
  H       60.786      48.688      22.032
  H       59.767      49.210      20.692
  P       58.702      47.255      17.222
  C       57.544      45.241      16.139
  O       58.759      45.760      16.644
  O       58.361      48.315      16.228
  O       57.621      47.178      18.404
  H       57.194      48.053      18.520
  H       57.753      44.303      15.619
  H       57.087      45.944      15.436
  H       56.857      45.041      16.965
  H       55.525      45.672      22.303
  H       56.613      46.287      21.082
  H       55.591      47.387      21.975

 3  4  5  6  7  8  9  10  11  12  13  23  28  29  30  31  32 0
 6-311+G(2d,p)
 ****
 33  34 0
 6-311+G(2d,p)
 ****
 1  2  14  15  16  17  18  19  20  21  22  24  25  26  27 0
 3-21G
 ****
 35  36  37  38  39  40  41  42  43  44  45 0
 3-21G
 ****


