%nproc=1
%NoSave
%Mem=1900MB
#P OB98/GEN NMR

erre ene a

0 1
  C      -66.539      36.214     -42.812
  O      -66.658      35.761     -44.146
  H      -67.458      36.738     -42.535
  H      -65.698      36.906     -42.720
  H      -66.397      35.366     -42.137
  P      -65.360      35.053     -44.775
  C      -64.446      32.635     -44.422
  O      -65.199      33.717     -43.897
  C      -63.765      31.882     -43.285
  O      -62.850      32.747     -42.578
  C      -64.725      31.353     -42.225
  O      -65.388      30.165     -42.624
  C      -63.760      31.105     -41.082
  O      -63.011      29.902     -41.335
  C      -62.854      32.354     -41.179
  N      -63.309      33.461     -40.336
  C      -63.281      33.249     -38.952
  O      -62.900      32.175     -38.491
  N      -63.719      34.251     -38.120
  C      -64.138      35.371     -38.622
  N      -64.573      36.323     -37.753
  C      -64.168      35.642     -40.071
  C      -63.747      34.657     -40.859
  O      -64.147      35.959     -44.255
  O      -65.381      34.840     -46.251
  H      -62.272      29.890     -40.699
  H      -63.288      35.532     -44.488
  H      -64.537      36.587     -40.442
  H      -63.743      34.784     -41.936
  H      -61.820      32.111     -40.906
  H      -64.259      30.977     -40.119
  H      -65.446      32.118     -41.916
  H      -63.171      31.070     -43.725
  H      -64.599      36.086     -36.771
  H      -63.697      33.038     -45.112
  H      -65.081      37.145     -38.055
  H      -65.102      31.951     -44.968
  P      -66.873      29.917     -42.064
  C      -68.988      31.418     -41.928
  O      -67.568      31.356     -41.925
  O      -66.617      29.485     -40.546
  O      -67.667      28.892     -42.813
  H      -67.233      28.780     -40.271
  H      -69.301      32.436     -41.828
  H      -69.372      30.845     -41.110
  H      -69.360      31.019     -42.848

 6  7  8  9  10  11  12  13  14  15  16  26  30  31  32  33  35 0
 6-311+G(2d,p)
 ****
 37  38 0
 6-311+G(2d,p)
 ****
 1  2  3  4  5  17  18  19  20  21  22  23  24  25 0
 3-21G
 ****
 27  28  29  34  36  39  40  41  42  43  44  45  46 0
 3-21G
 ****


