%nproc=1
%NoSave
%Mem=1900MB
#P OB98/GEN NMR

erre ene a

0 1
  C     -385.632    -117.303    -174.994
  O     -386.333    -117.103    -173.780
  H     -385.001    -118.189    -174.891
  H     -384.995    -116.440    -175.206
  H     -386.337    -117.462    -175.813
  P     -387.339    -115.854    -173.734
  C     -387.082    -113.434    -172.849
  O     -386.423    -114.627    -173.254
  C     -386.151    -112.574    -171.998
  O     -385.697    -113.304    -170.844
  C     -384.889    -112.112    -172.719
  O     -385.159    -110.987    -173.538
  C     -384.005    -111.752    -171.536
  O     -384.370    -110.451    -171.032
  C     -384.366    -112.833    -170.502
  N     -379.520    -114.378    -169.812
  C     -380.057    -113.149    -169.958
  N     -381.345    -112.814    -170.180
  C     -382.117    -113.911    -170.252
  C     -381.710    -115.232    -170.120
  C     -380.344    -115.450    -169.880
  N     -379.800    -116.706    -169.721
  N     -382.782    -116.089    -170.251
  C     -383.825    -115.299    -170.403
  N     -383.471    -113.974    -170.446
  O     -388.604    -116.071    -172.979
  O     -387.522    -115.553    -175.296
  H     -384.189    -109.802    -171.736
  H     -386.680    -115.673    -175.769
  H     -379.358    -112.319    -169.884
  H     -384.854    -115.633    -170.472
  H     -384.413    -112.424    -169.487
  H     -382.948    -111.700    -171.809
  H     -384.426    -112.932    -173.277
  H     -386.729    -111.714    -171.633
  H     -387.987    -113.673    -172.283
  H     -378.795    -116.782    -169.725
  H     -380.392    -117.504    -169.897
  H     -387.372    -112.895    -173.755
  P     -384.363    -110.768    -174.913
  C     -382.943    -108.706    -175.501
  O     -383.146    -109.775    -174.583
  O     -385.203    -110.355    -176.070
  O     -383.629    -112.162    -175.178
  H     -383.636    -112.374    -176.131
  H     -382.111    -108.114    -175.181
  H     -383.821    -108.096    -175.538
  H     -382.744    -109.104    -176.474

 6  7  8  9  10  11  12  13  14  15  25  28  32  33  34  35 0
 6-311+G(2d,p)
 ****
 36  39  40 0
 6-311+G(2d,p)
 ****
 1  2  3  4  5  16  17  18  19  20  21  22  23  24 0
 3-21G
 ****
 26  27  29  30  31  37  38  41  42  43  44  45  46  47 0
 3-21G
 ****
 48 0
 3-21G
 ****


