%nproc=1
%NoSave
%Mem=1900MB
#P OB98/GEN NMR

erre ene a

0 1
  C     -329.016     -68.452    -676.025
  O     -327.738     -68.344    -676.598
  P     -327.067     -69.609    -677.345
  C     -327.126     -68.534    -679.692
  O     -327.618     -69.594    -678.858
  C     -326.043     -69.085    -680.632
  O     -326.551     -70.178    -681.434
  C     -325.542     -68.074    -681.648
  O     -324.830     -66.960    -681.154
  C     -324.811     -68.978    -682.626
  O     -323.500     -69.315    -682.166
  C     -325.729     -70.233    -682.630
  N     -326.541     -70.325    -683.833
  C     -326.351     -71.479    -684.607
  O     -325.571     -72.370    -684.309
  N     -327.090     -71.552    -685.758
  C     -327.933     -70.581    -686.232
  O     -328.537     -70.699    -687.299
  C     -328.083     -69.390    -685.399
  C     -327.388     -69.311    -684.252
  O     -327.233     -70.916    -676.641
  O     -325.547     -69.152    -677.539
  H     -323.598     -69.814    -681.344
  H     -325.424     -68.345    -678.065
  H     -326.957     -72.363    -686.336
  H     -328.754     -68.614    -685.730
  H     -327.472     -68.441    -683.615
  H     -325.123     -71.147    -682.550
  H     -324.690     -68.506    -683.615
  H     -326.415     -67.659    -682.173
  H     -325.221     -69.489    -680.017
  H     -326.695     -67.750    -679.063
  H     -327.958     -68.097    -680.264
  P     -325.462     -65.477    -681.082
  C     -325.440     -65.314    -678.478
  O     -326.201     -65.323    -679.668
  O     -326.163     -64.973    -682.298
  O     -324.133     -64.577    -680.841
  H     -324.268     -63.700    -681.243
  H     -326.106     -65.253    -677.616
  H     -324.759     -64.453    -678.468
  H     -324.864     -66.248    -678.399
  H     -329.288     -67.518    -675.580
  H     -329.007     -69.215    -675.275
  H     -329.727     -68.706    -676.784

 3  4  5  6  7  8  9  10  11  12  13  23  28  29  30  31  32 0
 6-311+G(2d,p)
 ****
 33  34 0
 6-311+G(2d,p)
 ****
 1  2  14  15  16  17  18  19  20  21  22  24  25  26  27 0
 3-21G
 ****
 35  36  37  38  39  40  41  42  43  44  45 0
 3-21G
 ****


