%nproc=1
%NoSave
%Mem=1900MB
#P OB98/GEN NMR

erre ene a

0 1
  C       68.006    -381.445    -167.386
  O       68.421    -381.594    -168.742
  P       69.704    -382.526    -169.026
  C       72.210    -382.397    -168.367
  O       70.956    -381.726    -168.412
  C       73.237    -381.556    -167.616
  O       72.739    -381.246    -166.302
  C       74.574    -382.254    -167.391
  O       75.407    -382.183    -168.539
  C       75.141    -381.421    -166.247
  O       75.743    -380.222    -166.771
  C       73.884    -381.077    -165.427
  N       75.004    -381.711    -160.528
  C       75.364    -380.695    -161.398
  N       76.110    -379.697    -160.879
  N       75.031    -380.670    -162.663
  C       74.257    -381.713    -163.032
  C       73.828    -382.778    -162.259
  C       74.248    -382.823    -160.877
  O       74.013    -383.731    -160.079
  N       73.040    -383.633    -162.986
  C       72.955    -383.072    -164.180
  N       73.699    -381.920    -164.263
  O       69.910    -382.379    -170.603
  O       69.558    -383.948    -168.610
  H       76.508    -380.500    -167.320
  H       70.376    -383.161    -170.952
  H       75.275    -381.673    -159.561
  H       72.370    -383.465    -165.005
  H       73.898    -380.032    -165.107
  H       75.923    -381.951    -165.681
  H       76.288    -379.595    -159.890
  H       74.433    -383.289    -167.056
  H       76.350    -378.924    -161.488
  H       73.380    -380.617    -168.164
  H       72.564    -382.562    -169.390
  H       72.076    -383.371    -167.885
  P       76.626    -383.229    -168.599
  C       78.612    -383.714    -166.996
  O       77.602    -382.812    -167.395
  O       77.424    -382.790    -169.915
  O       76.212    -384.661    -168.647
  H       77.916    -383.546    -170.283
  H       79.030    -384.255    -167.849
  H       78.200    -384.434    -166.281
  H       79.413    -383.154    -166.509
  H       67.149    -380.805    -167.343
  H       68.802    -381.014    -166.815
  H       67.755    -382.404    -166.982

 3  4  5  6  7  8  9  10  11  12  23  26  30  31  33  0
 6-311+G(2d,p)
 ****
 35  36  37  38 0
 6-311+G(2d,p)
 ****
 1  2  13  14  15  16  17  18  19  20  21  22  24  25  27  28  29 0
 3-21G
 ****
 32  34  39  40  41  42  43  44  45  46  47  48  49 0
 3-21G
 ****


