%nproc=1
%NoSave
%Mem=1900MB
#P OB98/GEN NMR

erre ene a

0 1
  C     -598.926     978.141    -234.136
  O     -597.767     977.339    -234.018
  P     -596.501     977.971    -233.245
  C     -595.681     975.600    -232.564
  O     -595.386     976.816    -233.234
  C     -594.904     974.443    -233.199
  O     -595.454     974.109    -234.485
  C     -593.431     974.720    -233.443
  O     -592.649     974.549    -232.277
  C     -593.099     973.657    -234.470
  O     -592.916     972.392    -233.819
  C     -594.387     973.617    -235.340
  N     -594.967     973.645    -240.402
  C     -595.056     972.656    -239.511
  N     -594.863     972.725    -238.165
  C     -594.530     973.976    -237.803
  C     -594.379     975.081    -238.597
  C     -594.618     974.892    -239.975
  N     -594.562     975.912    -240.901
  N     -594.022     976.190    -237.869
  C     -593.985     975.760    -236.632
  N     -594.289     974.442    -236.517
  O     -597.012     978.011    -231.724
  O     -596.074     979.304    -233.722
  H     -592.182     972.508    -233.180
  H     -596.505     978.677    -231.222
  H     -595.302     971.681    -239.887
  H     -593.748     976.382    -235.759
  H     -594.646     972.601    -235.648
  H     -592.185     973.864    -235.031
  H     -593.289     975.720    -233.879
  H     -595.028     973.559    -232.546
  H     -596.756     975.389    -232.650
  H     -594.928     975.742    -241.824
  H     -594.511     976.872    -240.550
  H     -595.422     975.695    -231.508
  P     -591.635     975.737    -231.904
  C     -591.959     975.259    -229.360
  O     -591.059     975.346    -230.434
  O     -592.606     976.972    -231.616
  O     -590.633     976.024    -232.960
  H     -592.129     977.815    -231.772
  H     -591.475     974.706    -228.546
  H     -592.870     974.725    -229.642
  H     -592.226     976.265    -229.006
  H     -599.681     977.600    -234.667
  H     -598.687     979.037    -234.670
  H     -599.287     978.392    -233.160

 3  4  5  6  7  8  9  10  11  12  22  25  29  30  31  32 0
 6-311+G(2d,p)
 ****
 33  36  37 0
 6-311+G(2d,p)
 ****
 1  2  13  14  15  16  17  18  19  20  21  23  24  26 0
 3-21G
 ****
 27  28  34  35  38  39  40  41  42  43  44  45  46  47  48 0
 3-21G
 ****


