%nproc=1
%NoSave
%Mem=1900MB
#P OB98/GEN NMR

erre ene a

0 1
  C      289.979    -246.645     -18.932
  O      289.579    -245.665     -17.995
  H      289.093    -247.176     -19.287
  H      290.657    -247.360     -18.460
  H      290.474    -246.173     -19.786
  P      290.740    -244.744     -17.383
  C      289.610    -242.454     -17.908
  O      290.025    -243.384     -16.919
  C      288.856    -241.288     -17.255
  O      287.522    -241.746     -16.886
  C      289.521    -240.767     -15.969
  O      289.226    -239.365     -15.837
  C      288.774    -241.540     -14.897
  O      288.961    -240.944     -13.635
  C      287.364    -241.483     -15.475
  N      284.172    -242.308     -11.584
  C      284.861    -241.210     -11.969
  N      285.686    -241.070     -13.027
  C      285.742    -242.211     -13.739
  C      285.101    -243.406     -13.471
  C      284.284    -243.436     -12.328
  N      283.597    -244.557     -11.918
  N      285.432    -244.360     -14.419
  C      286.253    -243.743     -15.246
  N      286.467    -242.444     -14.875
  O      291.581    -244.311     -18.676
  O      291.599    -245.388     -16.348
  H      288.815    -239.976     -13.677
  H      292.317    -244.933     -18.818
  H      284.735    -240.332     -11.344
  H      286.726    -244.186     -16.113
  H      286.908    -240.491     -15.366
  H      289.133    -242.571     -14.830
  H      290.604    -240.915     -15.948
  H      288.724    -240.485     -17.991
  H      288.957    -242.969     -18.620
  H      290.486    -242.068     -18.436
  H      283.055    -244.501     -11.072
  H      283.699    -245.413     -12.442
  P      290.300    -238.287     -16.349
  C      288.780    -236.906     -17.959
  O      289.568    -236.925     -16.780
  O      290.732    -238.899     -17.768
  O      291.499    -238.111     -15.478
  H      291.704    -238.873     -17.856
  H      288.368    -235.928     -18.097
  H      287.986    -237.618     -17.869
  H      289.391    -237.158     -18.801

 6  7  8  9  10  11  12  13  14  15  25  28  32  33  34  35 0
 6-311+G(2d,p)
 ****
 36  37  40 0
 6-311+G(2d,p)
 ****
 1  2  3  4  5  16  17  18  19  20  21  22  23  24 0
 3-21G
 ****
 26  27  29  30  31  38  39 41  42  43  44  45  46  47  48 0
 3-21G
 ****


