%nproc=1
%NoSave
%Mem=1900MB
#P OB98/GEN NMR

erre ene a

0 1
  C       37.873      32.129     160.753
  O       38.435      31.514     161.900
  P       38.770      32.471     163.148
  C       41.240      31.676     163.438
  O       40.350      32.727     163.106
  C       42.618      32.251     163.772
  O       43.241      32.778     162.583
  C       42.592      33.391     164.780
  O       42.512      32.884     166.101
  C       43.904      34.101     164.471
  O       45.012      33.430     165.100
  C       43.981      33.977     162.942
  N       45.183      38.168     160.385
  C       45.983      37.321     161.127
  N       47.302      37.608     161.153
  N       45.531      36.284     161.781
  C       44.192      36.125     161.676
  C       43.293      36.905     160.985
  C       43.812      38.018     160.224
  O       43.161      38.739     159.475
  N       42.011      36.444     161.133
  C       42.139      35.369     161.884
  N       43.445      35.120     162.224
  O       38.563      31.508     164.406
  O       37.945      33.716     163.234
  H       44.863      33.398     166.063
  H       37.685      31.649     164.810
  H       45.588      38.942     159.887
  H       41.328      34.730     162.190
  H       45.010      33.836     162.591
  H       43.913      35.131     164.839
  H       47.718      38.404     160.693
  H       41.750      34.064     164.575
  H       47.903      37.000     161.695
  H       43.246      31.428     164.138
  H       41.329      30.996     162.586
  H       40.836      31.120     164.291
  P       42.337      33.944     167.291
  C       44.384      33.229     168.719
  O       43.791      34.219     167.900
  O       41.596      33.098     168.431
  O       41.554      35.162     166.925
  H       40.969      33.671     168.907
  H       45.469      33.290     168.613
  H       44.055      32.224     168.442
  H       44.117      33.420     169.761
  H       37.699      31.389     160.001
  H       38.550      32.868     160.377
  H       36.946      32.595     161.016

 3  4  5  6  7  8  9  10  11  12  23  26  30  31 0
 6-311+G(2d,p)
 ****
 33  35  36  37  38 0
 6-311+G(2d,p)
 ****
 1  2  13  14  15  16  17  18  19  20  21  22  24  25 0
 3-21G
 ****
 27  28  29  32  34  39  40  41  42  43  44  45  46  47  48  49 0
 3-21G
 ****


