%nproc=1
%NoSave
%Mem=1900MB
#P OB98/GEN NMR

erre ene a

0 1
  C       31.292      -6.098     -87.501
  O       32.349      -5.164     -87.573
  H       31.208      -6.604     -88.467
  H       30.349      -5.588     -87.292
  H       31.488      -6.849     -86.730
  P       32.776      -4.376     -86.244
  C       31.184      -2.401     -86.697
  O       31.524      -3.468     -85.821
  C       30.110      -1.526     -86.057
  O       28.845      -2.222     -86.032
  C       30.406      -1.146     -84.610
  O       31.395      -0.139     -84.545
  C       29.020      -0.726     -84.145
  O       28.707       0.604     -84.588
  C       28.124      -1.762     -84.866
  N       27.746      -2.883     -84.003
  C       26.423      -2.909     -83.576
  O       25.597      -2.053     -83.885
  N       26.088      -3.939     -82.736
  C       26.952      -4.863     -82.226
  O       26.659      -5.628     -81.312
  C       28.317      -4.831     -82.770
  C       28.652      -3.849     -83.609
  O       34.083      -3.660     -86.307
  O       32.786      -5.516     -85.118
  H       33.706      -5.794     -84.949
  H       29.531       1.122     -84.509
  H       25.142      -3.941     -82.383
  H       29.016      -5.589     -82.439
  H       29.661      -3.787     -84.000
  H       27.204      -1.286     -85.229
  H       28.927      -0.731     -83.058
  H       30.714      -2.033     -84.045
  H       29.989      -0.627     -86.677
  H       30.798      -2.827     -87.630
  H       32.083      -1.817     -86.917
  P       32.262       0.084     -83.220
  C       30.389       1.480     -82.166
  O       31.254       0.364     -82.006
  O       33.368       1.080     -83.348
  O       32.841      -1.370     -82.879
  H       33.811      -1.312     -82.779
  H       29.764       1.573     -81.303
  H       29.780       1.337     -83.034
  H       30.972       2.370     -82.282

 6  7  8  9  10  11  12  13  14  15  16  27  31  32  33  34  35 0
 6-311+G(2d,p)
 ****
 36  37 0
 6-311+G(2d,p)
 ****
 1  2  3  4  5  17  18  19  20  21  22  23  24  25 0
 3-21G
 ****
 26  28  29  30  38  39  40  41  42  43  44  45 0
 3-21G
 ****


