%nproc=1
%NoSave
%Mem=1900MB
#P OB98/GEN NMR

erre ene a

0 1
  C      193.300     219.928    -155.797
  O      193.259     218.548    -155.493
  H      194.336     220.213    -156.011
  H      192.944     220.512    -154.945
  H      192.687     220.140    -156.677
  P      191.819     217.915    -155.189
  C      192.591     217.747    -152.710
  O      191.560     218.122    -153.616
  C      192.142     218.022    -151.276
  O      193.160     217.564    -150.356
  C      191.943     219.505    -150.957
  O      190.698     219.984    -151.441
  C      192.042     219.495    -149.438
  O      190.797     219.134    -148.828
  C      193.086     218.396    -149.179
  N      196.403     219.349    -145.421
  C      195.202     218.726    -145.430
  N      194.385     218.500    -146.482
  C      194.931     218.978    -147.617
  C      196.139     219.638    -147.760
  C      196.899     219.822    -146.588
  N      198.106     220.483    -146.572
  N      196.330     220.016    -149.076
  C      195.263     219.589    -149.713
  N      194.395     218.945    -148.874
  O      192.078     216.343    -155.330
  O      190.717     218.385    -156.083
  H      190.502     218.308    -149.262
  H      191.845     216.051    -156.231
  H      194.847     218.374    -144.464
  H      195.068     219.722    -150.773
  H      192.807     217.748    -148.341
  H      192.320     220.477    -149.051
  H      192.771     220.095    -151.364
  H      191.226     217.455    -151.082
  H      193.494     218.334    -152.923
  H      192.813     216.685    -152.845
  H      198.583     220.597    -145.694
  H      198.433     220.932    -147.419
  P      190.686     221.332    -152.311
  C      191.209     223.008    -150.391
  O      191.655     222.386    -151.584
  O      189.222     221.921    -152.052
  O      190.965     221.136    -153.768
  H      188.638     221.712    -152.811
  H      191.964     223.677    -150.034
  H      191.015     222.261    -149.650
  H      190.311     223.556    -150.588

 6  7  8  9  10  11  12  13  14  15  25  28  32  33  34  35 0
 6-311+G(2d,p)
 ****
 36  37  40 0
 6-311+G(2d,p)
 ****
 1  2  3  4  5  16  17  18  19  20  21  22  23  24 0
 3-21G
 ****
 26  27  29  30  31  38  39 41  42  43  44  45  46  47  48 0
 3-21G
 ****


