%nproc=1
%NoSave
%Mem=1900MB
#P OB98/GEN NMR

erre ene a

0 1
  C     -105.009      62.949     333.197
  O     -105.538      63.647     334.327
  P     -105.776      65.229     334.234
  C     -104.536      65.828     336.431
  O     -105.769      65.851     335.713
  C     -104.755      66.321     337.863
  O     -105.203      65.252     338.731
  C     -103.470      66.833     338.516
  O     -102.936      68.043     338.011
  C     -103.820      66.790     339.995
  O     -104.553      67.949     340.397
  C     -104.721      65.533     340.061
  N     -104.025      64.372     340.633
  C     -104.007      64.285     342.020
  O     -104.503      65.143     342.751
  N     -103.368      63.197     342.546
  C     -102.732      62.220     341.829
  O     -102.153      61.273     342.352
  C     -102.761      62.375     340.365
  C     -103.395      63.429     339.842
  O     -106.905      65.668     333.365
  O     -104.375      65.757     333.640
  H     -104.648      67.905     341.370
  H     -104.574      66.456     332.985
  H     -103.357      63.105     343.547
  H     -102.255      61.626     339.771
  H     -103.430      63.559     338.766
  H     -105.604      65.723     340.686
  H     -102.924      66.744     340.621
  H     -102.692      66.077     338.356
  H     -105.532      67.087     337.853
  H     -103.800      66.454     335.920
  H     -104.138      64.806     336.418
  P     -101.384      68.243     337.665
  C     -101.065      70.500     338.908
  O     -101.063      69.814     337.669
  O     -100.827      67.429     336.544
  O     -100.693      67.765     339.036
  H      -99.831      67.341     338.817
  H     -100.844      71.560     338.720
  H     -100.292      70.096     339.564
  H     -102.046      70.432     339.384
  H     -104.915      61.909     333.432
  H     -104.047      63.347     332.950
  H     -105.669      63.068     332.363

 3  4  5  6  7  8  9  10  11  12  13  23  28  29  30  31  32 0
 6-311+G(2d,p)
 ****
 33  34 0
 6-311+G(2d,p)
 ****
 1  2  14  15  16  17  18  19  20  21  22  24  25  26  27 0
 3-21G
 ****
 35  36  37  38  39  40  41  42  43  44  45 0
 3-21G
 ****


