%nproc=1
%NoSave
%Mem=1900MB
#P OB98/GEN NMR

erre ene a

0 1
  C      417.251     214.479     304.650
  O      417.815     213.220     304.361
  H      418.044     215.233     304.627
  H      416.813     214.468     305.652
  H      416.491     214.756     303.918
  P      416.840     211.991     304.044
  C      418.226     210.195     305.277
  O      417.760     210.675     304.024
  C      419.561     209.464     305.124
  O      419.420     208.433     304.101
  C      420.723     210.373     304.701
  O      421.924     209.830     305.271
  C      420.724     210.191     303.198
  O      421.946     210.611     302.623
  C      420.408     208.697     303.088
  N      419.943     208.319     301.753
  C      420.764     207.461     301.028
  O      421.847     207.046     301.445
  N      420.324     207.120     299.784
  C      419.199     207.596     299.174
  O      418.868     207.280     298.039
  C      418.393     208.539     299.969
  C      418.795     208.848     301.205
  O      415.956     212.151     302.853
  O      415.991     211.801     305.391
  H      422.702     210.198     303.090
  H      415.108     211.446     305.185
  H      420.901     206.485     299.248
  H      417.502     208.944     299.514
  H      418.225     209.540     301.816
  H      421.298     208.092     303.317
  H      419.928     210.781     302.739
  H      420.590     211.411     305.009
  H      419.789     208.945     306.065
  H      417.465     209.507     305.677
  H      418.336     211.037     305.972
  P      422.257     209.948     306.834
  C      424.829     210.021     306.663
  O      423.689     209.283     307.108
  O      421.172     209.453     307.730
  O      422.525     211.510     307.080
  H      422.301     211.744     308.000
  H      425.720     209.479     306.901
  H      424.850     210.973     307.151
  H      424.770     210.164     305.604

 6  7  8  9  10  11  12  13  14  15  16  26  31  32  33  34  35 0
 6-311+G(2d,p)
 ****
 36  37 0
 6-311+G(2d,p)
 ****
 1  2  3  4  5  17  18  19  20  21  22  23  24  25 0
 3-21G
 ****
 27  28  29  30  38  39  40  41  42  43  44  45 0
 3-21G
 ****


