%nproc=1
%NoSave
%Mem=1900MB
#P OB98/GEN NMR

erre ene a

0 1
  C      674.204    -373.308    -322.523
  O      674.574    -372.299    -323.467
  P      674.578    -372.684    -325.023
  C      675.464    -371.647    -327.246
  O      675.442    -371.593    -325.822
  C      675.543    -370.233    -327.835
  O      674.255    -369.580    -327.824
  C      676.478    -369.309    -327.071
  O      677.830    -369.500    -327.452
  C      675.986    -367.949    -327.537
  O      676.531    -367.654    -328.845
  C      674.474    -368.158    -327.635
  N      672.513    -364.131    -325.146
  C      673.215    -364.226    -326.302
  N      673.720    -365.336    -326.883
  C      673.420    -366.425    -326.175
  C      672.711    -366.488    -324.986
  C      672.243    -365.270    -324.467
  N      671.527    -365.177    -323.295
  N      672.611    -367.791    -324.541
  C      673.232    -368.508    -325.453
  N      673.748    -367.728    -326.453
  O      673.075    -372.369    -325.480
  O      674.936    -374.105    -325.298
  H      676.159    -366.790    -329.114
  H      672.792    -373.007    -326.160
  H      673.407    -363.290    -326.814
  H      673.334    -369.581    -325.434
  H      674.028    -367.639    -328.492
  H      676.301    -367.133    -326.878
  H      676.332    -369.407    -325.992
  H      675.879    -370.323    -328.873
  H      674.569    -372.157    -327.610
  H      671.198    -364.271    -322.996
  H      671.304    -366.029    -322.788
  H      676.319    -372.255    -327.564
  P      678.860    -369.970    -326.310
  C      681.169    -371.142    -326.449
  O      680.238    -370.276    -327.060
  O      678.302    -371.414    -325.899
  O      678.941    -369.046    -325.139
  H      678.500    -371.591    -324.957
  H      681.884    -371.481    -327.205
  H      680.670    -372.017    -326.016
  H      681.713    -370.611    -325.658
  H      674.249    -372.904    -321.533
  H      674.879    -374.135    -322.602
  H      673.208    -373.640    -322.728

 3  4  5  6  7  8  9  10  11  12  22  25  29  30  31  32 0
 6-311+G(2d,p)
 ****
 33  36  37 0
 6-311+G(2d,p)
 ****
 1  2  13  14  15  16  17  18  19  20  21  23  24  26 0
 3-21G
 ****
 27  28  34  35  38  39  40  41  42  43  44  45  46  47  48 0
 3-21G
 ****


