%nproc=1
%NoSave
%Mem=1900MB
#P OB98/GEN NMR

erre ene a

0 1
  C       34.707    -105.122     -28.529
  O       33.793    -105.156     -27.425
  P       32.764    -106.361     -27.170
  C       32.332    -105.642     -24.732
  O       31.753    -105.957     -25.991
  C       32.748    -104.169     -24.650
  O       31.653    -103.312     -25.096
  C       33.151    -103.700     -23.240
  O       34.254    -102.804     -23.406
  C       31.899    -102.966     -22.784
  O       32.120    -102.084     -21.700
  C       31.505    -102.282     -24.096
  N       30.160    -101.719     -24.131
  C       30.039    -100.330     -24.267
  O       31.028     -99.600     -24.297
  N       28.779     -99.786     -24.346
  C       27.735    -100.551     -24.287
  N       26.519     -99.948     -24.382
  C       27.815    -102.012     -24.126
  C       29.044    -102.522     -24.058
  O       33.430    -107.681     -26.952
  O       31.833    -106.411     -28.472
  H       31.610    -107.339     -28.671
  H       31.321    -101.536     -21.590
  H       26.920    -102.614     -24.088
  H       29.189    -103.594     -23.967
  H       32.236    -101.500     -24.332
  H       31.156    -103.704     -22.467
  H       33.455    -104.516     -22.577
  H       33.575    -104.012     -25.353
  H       26.504     -98.942     -24.503
  H       33.218    -106.267     -24.592
  H       25.643    -100.447     -24.356
  H       31.614    -105.881     -23.939
  P       35.622    -103.076     -22.614
  C       36.994    -101.940     -24.515
  O       36.703    -102.013     -23.134
  O       36.137    -104.431     -23.304
  O       35.506    -103.263     -21.137
  H       36.712    -104.909     -22.679
  H       37.030    -100.888     -24.810
  H       36.244    -102.449     -25.125
  H       37.971    -102.393     -24.698
  H       35.286    -104.223     -28.485
  H       34.158    -105.149     -29.447
  H       35.359    -105.969     -28.478

 3  4  5  6  7  8  9  10  11  12  13  24  27  28  29  30  32 0
 6-311+G(2d,p)
 ****
 34  35 0
 6-311+G(2d,p)
 ****
 1  2  14  15  16  17  18  19  20  21  22  23  25  26 0
 3-21G
 ****
 31  33  36  37  38  39  40  41  42  43  44  45  46 0
 3-21G
 ****


