%nproc=1
%NoSave
%Mem=1900MB
#P OB98/GEN NMR

erre ene a

0 1
  C      -12.360      68.446      78.548
  O      -13.479      68.645      77.679
  P      -14.034      67.346      76.906
  C      -13.003      65.744      75.132
  O      -13.033      67.053      75.688
  C      -11.928      65.637      74.054
  O      -12.214      66.513      72.948
  C      -10.531      66.029      74.521
  O       -9.906      64.979      75.244
  C       -9.831      66.260      73.189
  O       -9.383      65.004      72.647
  C      -10.951      66.854      72.320
  N       -9.861      70.716      69.222
  C       -9.815      69.354      68.991
  N       -9.451      68.970      67.748
  N      -10.099      68.454      69.894
  C      -10.474      68.984      71.082
  C      -10.556      70.312      71.436
  C      -10.208      71.300      70.433
  O      -10.201      72.516      70.598
  N      -10.985      70.464      72.730
  C      -11.186      69.229      73.153
  N      -10.878      68.296      72.193
  O      -15.348      67.898      76.179
  O      -14.330      66.191      77.801
  H       -8.977      65.198      71.779
  H      -15.984      67.170      76.039
  H       -9.623      71.367      68.493
  H      -11.558      68.962      74.134
  H      -10.960      66.418      71.315
  H       -8.945      66.898      73.283
  H       -9.290      69.608      66.984
  H      -10.559      66.964      75.096
  H       -9.448      67.975      67.550
  H      -11.921      64.601      73.684
  H      -13.977      65.503      74.701
  H      -12.825      65.022      75.936
  P       -9.794      65.152      76.836
  C       -8.118      66.580      78.208
  O       -8.940      66.490      77.063
  O       -8.796      63.974      77.260
  O      -11.097      65.071      77.561
  H       -8.985      63.686      78.172
  H       -7.575      65.647      78.383
  H       -8.731      66.818      79.085
  H       -7.392      67.383      78.057
  H      -12.088      69.378      78.999
  H      -11.533      68.068      77.984
  H      -12.622      67.743      79.311

 3  4  5  6  7  8  9  10  11  12  23  26  30  31  33  0
 6-311+G(2d,p)
 ****
 35  36  37  38 0
 6-311+G(2d,p)
 ****
 1  2  13  14  15  16  17  18  19  20  21  22  24  25  27  28  29 0
 3-21G
 ****
 32  34  39  40  41  42  43  44  45  46  47  48  49 0
 3-21G
 ****


