%nproc=1
%NoSave
%Mem=1900MB
#P OB98/GEN NMR

erre ene a

0 1
  C       39.316     -21.982    -112.495
  O       39.797     -21.844    -111.152
  P       40.437     -20.484    -110.592
  C       38.611     -20.254    -108.785
  O       39.299     -19.625    -109.862
  C       37.951     -19.227    -107.859
  O       38.947     -18.396    -107.233
  C       36.996     -18.263    -108.550
  O       35.763     -18.892    -108.851
  C       36.909     -17.145    -107.517
  O       35.964     -17.468    -106.484
  C       38.345     -17.117    -106.956
  N       39.137     -16.023    -107.504
  C       38.728     -14.729    -107.172
  O       37.712     -14.548    -106.499
  N       39.468     -13.667    -107.633
  C       40.479     -13.879    -108.417
  N       41.179     -12.790    -108.836
  C       40.889     -15.223    -108.864
  C       40.182     -16.237    -108.371
  O       41.221     -19.718    -111.609
  O       41.389     -20.940    -109.386
  H       35.860     -16.663    -105.941
  H       42.139     -20.320    -109.321
  H       41.719     -15.354    -109.540
  H       40.420     -17.260    -108.641
  H       38.326     -17.022    -105.864
  H       36.594     -16.193    -107.954
  H       37.458     -17.876    -109.466
  H       37.429     -19.779    -107.066
  H       40.877     -11.883    -108.506
  H       39.336     -20.843    -108.213
  H       41.982     -12.845    -109.445
  H       37.856     -20.932    -109.198
  P       34.661     -18.111    -109.709
  C       34.034     -20.073    -111.241
  O       34.613     -18.784    -111.162
  O       34.770     -16.623    -109.702
  O       33.272     -18.583    -109.060
  H       32.625     -17.858    -109.136
  H       33.697     -20.244    -112.266
  H       33.179     -20.164    -110.565
  H       34.785     -20.824    -110.983
  H       38.936     -22.972    -112.638
  H       40.118     -21.806    -113.181
  H       38.535     -21.272    -112.669

 3  4  5  6  7  8  9  10  11  12  13  23  27  28  29  30  32 0
 6-311+G(2d,p)
 ****
 34  35 0
 6-311+G(2d,p)
 ****
 1  2  14  15  16  17  18  19  20  21  22  24  25  26 0
 3-21G
 ****
 31  33  36  37  38  39  40  41  42  43  44  45  46 0
 3-21G
 ****


