%nproc=1
%NoSave
%Mem=1900MB
#P OB98/GEN NMR

erre ene a

0 1
  C     -102.111     191.291      37.608
  O     -101.118     191.217      36.613
  H     -101.941     190.486      38.328
  H     -103.103     191.152      37.170
  H     -102.064     192.247      38.134
  P     -101.149     192.260      35.392
  C     -102.764     192.749      33.455
  O     -102.536     191.971      34.625
  C     -103.628     191.991      32.449
  O     -102.820     190.985      31.776
  C     -104.826     191.268      33.084
  O     -106.007     191.532      32.322
  C     -104.464     189.798      32.967
  O     -105.601     188.941      32.975
  C     -103.640     189.804      31.677
  N     -102.851     188.590      31.522
  C     -103.557     187.436      31.167
  O     -104.777     187.483      31.000
  N     -102.877     186.248      31.069
  C     -101.611     186.208      31.346
  N     -101.002     184.995      31.256
  C     -100.833     187.398      31.751
  C     -101.507     188.545      31.813
  O      -99.933     192.246      34.526
  O     -101.416     193.683      36.074
  H     -105.302     188.025      32.777
  H     -101.103     194.391      35.465
  H      -99.780     187.309      31.975
  H     -101.020     189.472      32.102
  H     -104.289     189.915      30.797
  H     -103.825     189.515      33.815
  H     -105.002     191.558      34.119
  H     -103.954     192.691      31.671
  H     -101.577     184.205      30.982
  H     -101.795     193.006      33.012
  H     -100.031     184.836      31.470
  H     -103.282     193.668      33.747
  P     -106.964     192.701      32.873
  C     -108.746     192.967      34.738
  O     -107.837     192.100      34.077
  O     -108.021     192.904      31.688
  O     -106.233     193.968      33.181
  H     -107.863     193.761      31.248
  H     -109.253     192.429      35.512
  H     -109.461     193.338      34.034
  H     -108.209     193.787      35.166

 6  7  8  9  10  11  12  13  14  15  16  26  30  31  32  33  35 0
 6-311+G(2d,p)
 ****
 37  38 0
 6-311+G(2d,p)
 ****
 1  2  3  4  5  17  18  19  20  21  22  23  24  25 0
 3-21G
 ****
 27  28  29  34  36  39  40  41  42  43  44  45  46 0
 3-21G
 ****


