%nproc=1
%NoSave
%Mem=1900MB
#P OB98/GEN NMR

erre ene a

0 1
  C       -8.048     -32.715      45.588
  O       -9.129     -32.157      44.845
  P      -10.528     -31.958      45.605
  C      -11.002     -29.500      44.817
  O      -11.378     -30.867      44.797
  C      -12.175     -28.597      44.399
  O      -12.402     -28.770      42.974
  C      -13.512     -28.914      45.062
  O      -14.376     -27.778      44.922
  C      -14.027     -30.047      44.196
  O      -15.430     -30.238      44.359
  C      -13.567     -29.620      42.781
  N      -13.227     -30.757      41.901
  C      -14.253     -31.368      41.182
  O      -15.435     -31.021      41.234
  N      -13.892     -32.440      40.408
  C      -12.626     -32.927      40.254
  O      -12.370     -33.944      39.617
  C      -11.564     -32.161      40.922
  C      -11.907     -31.138      41.710
  O      -10.110     -31.212      46.961
  O      -11.257     -33.234      45.868
  H      -15.676     -30.998      43.776
  H      -10.152     -31.834      47.713
  H      -14.636     -32.936      39.935
  H      -10.540     -32.475      40.768
  H      -11.133     -30.573      42.226
  H      -14.344     -29.035      42.275
  H      -13.535     -30.981      44.482
  H      -13.444     -29.200      46.115
  H      -11.900     -27.551      44.564
  H      -10.141     -29.343      44.160
  H      -10.673     -29.225      45.828
  P      -14.136     -26.525      45.890
  C      -13.519     -24.854      44.035
  O      -14.468     -25.217      45.022
  O      -12.833     -26.505      46.622
  O      -15.385     -26.602      46.899
  H      -15.190     -26.083      47.698
  H      -14.039     -24.341      43.220
  H      -13.005     -25.733      43.628
  H      -12.781     -24.175      44.472
  H       -7.185     -32.790      44.960
  H       -8.320     -33.689      45.937
  H       -7.827     -32.085      46.424

 3  4  5  6  7  8  9  10  11  12  13  23  28  29  30  31  32 0
 6-311+G(2d,p)
 ****
 33  34 0
 6-311+G(2d,p)
 ****
 1  2  14  15  16  17  18  19  20  21  22  24  25  26  27 0
 3-21G
 ****
 35  36  37  38  39  40  41  42  43  44  45 0
 3-21G
 ****


