%nproc=1
%NoSave
%Mem=1900MB
#P OB98/GEN NMR

erre ene a

0 1
  C     -356.574      96.072    -135.604
  O     -356.218      94.996    -134.757
  H     -356.573      95.718    -136.638
  H     -355.852      96.886    -135.508
  H     -357.578      96.427    -135.355
  P     -356.128      95.317    -133.189
  C     -357.912      93.516    -132.665
  O     -357.563      94.893    -132.611
  C     -359.169      93.316    -133.508
  O     -358.900      93.623    -134.886
  C     -359.719      91.895    -133.487
  O     -360.528      91.693    -132.339
  C     -360.552      91.889    -134.759
  O     -361.826      92.514    -134.510
  C     -359.721      92.762    -135.715
  N     -359.318      90.671    -140.387
  C     -360.379      91.169    -139.716
  N     -360.426      91.655    -138.457
  C     -359.212      91.610    -137.884
  C     -358.039      91.127    -138.444
  C     -358.119      90.645    -139.761
  N     -357.035      90.134    -140.441
  N     -356.989      91.233    -137.556
  C     -357.508      91.826    -136.500
  N     -358.858      92.042    -136.633
  O     -355.655      96.687    -132.834
  O     -355.188      94.122    -132.686
  H     -362.354      91.880    -133.988
  H     -355.426      93.290    -133.132
  H     -361.319      91.172    -140.262
  H     -356.952      92.138    -135.624
  H     -360.357      93.408    -136.330
  H     -360.759      90.881    -135.121
  H     -358.923      91.148    -133.574
  H     -359.925      94.030    -133.158
  H     -358.078      93.127    -131.655
  H     -357.221      89.639    -141.300
  H     -356.175      89.999    -139.927
  H     -357.068      92.976    -133.108
  P     -359.938      90.986    -131.024
  C     -361.165      92.515    -129.362
  O     -359.907      92.140    -129.912
  O     -358.658      90.255    -131.236
  O     -361.121      90.036    -130.523
  H     -360.773      89.374    -129.893
  H     -361.021      93.288    -128.636
  H     -361.617      91.666    -128.894
  H     -361.803      92.874    -130.143

 6  7  8  9  10  11  12  13  14  15  25  28  32  33  34  35 0
 6-311+G(2d,p)
 ****
 36  39  40 0
 6-311+G(2d,p)
 ****
 1  2  3  4  5  16  17  18  19  20  21  22  23  24 0
 3-21G
 ****
 26  27  29  30  31  37  38  41  42  43  44  45  46  47 0
 3-21G
 ****
 48 0
 3-21G
 ****


