%nproc=1
%NoSave
%Mem=1900MB
#P OB98/GEN NMR

erre ene a

0 1
  C      469.223     164.549    -303.530
  O      469.065     164.746    -302.138
  H      468.750     165.382    -304.057
  H      468.745     163.615    -303.841
  H      470.289     164.532    -303.794
  P      469.620     163.629    -301.130
  C      471.859     163.535    -299.842
  O      470.741     164.339    -300.219
  C      472.883     164.381    -299.074
  O      473.653     165.130    -300.046
  C      472.214     165.388    -298.115
  O      472.710     165.300    -296.778
  C      472.368     166.721    -298.838
  O      472.386     167.854    -297.994
  C      473.648     166.519    -299.665
  N      473.732     167.380    -300.845
  C      474.868     168.184    -300.970
  O      475.815     168.203    -300.184
  N      474.902     168.987    -302.082
  C      473.936     169.073    -303.042
  O      474.023     169.816    -304.020
  C      472.753     168.221    -302.845
  C      472.704     167.427    -301.768
  O      470.038     162.341    -301.758
  O      468.411     163.412    -300.097
  H      471.456     168.102    -297.806
  H      467.938     162.584    -300.317
  H      475.720     169.566    -302.193
  H      471.964     168.276    -303.582
  H      471.849     166.785    -301.591
  H      474.530     166.707    -299.052
  H      471.520     166.837    -299.520
  H      471.146     165.167    -297.997
  H      473.568     163.714    -298.543
  H      472.306     163.127    -300.754
  H      471.517     162.706    -299.211
  P      472.273     164.185    -295.715
  C      473.715     162.247    -294.681
  O      473.604     163.627    -295.007
  O      471.292     163.180    -296.201
  O      471.567     165.053    -294.548
  H      470.860     164.482    -294.171
  H      474.663     162.065    -294.220
  H      473.634     161.662    -295.573
  H      472.931     161.976    -294.005

 6  7  8  9  10  11  12  13  14  15  16  26  31  32  33  34  35 0
 6-311+G(2d,p)
 ****
 36  37 0
 6-311+G(2d,p)
 ****
 1  2  3  4  5  17  18  19  20  21  22  23  24  25 0
 3-21G
 ****
 27  28  29  30  38  39  40  41  42  43  44  45 0
 3-21G
 ****


