%nproc=1
%NoSave
%Mem=1900MB
#P OB98/GEN NMR

erre ene a

0 1
  C       84.973      15.200    -899.044
  O       83.748      15.233    -898.284
  P       83.722      14.618    -896.814
  C       82.696      16.794    -895.794
  O       83.714      15.808    -895.714
  C       82.444      17.432    -894.404
  O       81.909      16.421    -893.494
  C       83.695      18.037    -893.744
  O       83.242      19.155    -892.964
  C       84.136      16.917    -892.814
  O       84.987      17.353    -891.764
  C       82.781      16.379    -892.344
  N       82.825      15.030    -891.754
  C       83.644      14.831    -890.674
  O       84.419      15.673    -890.214
  N       83.638      13.563    -890.144
  C       82.910      12.496    -890.614
  O       82.949      11.391    -890.114
  C       82.059      12.786    -891.784
  C       82.068      14.013    -892.294
  O       85.228      14.052    -896.664
  O       82.731      13.527    -896.584
  H       85.026      16.629    -891.104
  H       85.206      13.159    -896.274
  H       84.240      13.393    -889.364
  H       81.455      11.964    -892.174
  H       81.428      14.241    -893.154
  H       82.359      17.084    -891.614
  H       84.696      16.164    -893.404
  H       84.453      18.339    -894.464
  H       81.654      18.193    -894.524
  H       81.778      16.339    -896.144
  H       83.010      17.565    -896.514
  P       84.134      20.493    -892.994
  C       82.366      22.128    -894.044
  O       83.576      21.409    -894.184
  O       85.515      19.923    -893.584
  O       84.305      21.165    -891.664
  H       85.374      19.329    -894.354
  H       82.282      22.571    -893.034
  H       81.530      21.447    -894.204
  H       82.348      22.926    -894.784
  H       84.812      15.652    -900.000
  H       85.283      14.185    -899.177
  H       85.733      15.739    -898.518

 3  4  5  6  7  8  9  10  11  12  13  23  28  29  30  31  32 0
 6-311+G(2d,p)
 ****
 33  34 0
 6-311+G(2d,p)
 ****
 1  2  14  15  16  17  18  19  20  21  22  24  25  26 0
 3-21G
 ****
 27  35  36  37  38  39  40  41  42  43  44  45 0
 3-21G
 ****


