%nproc=1
%NoSave
%Mem=1900MB
#P OB98/GEN NMR

erre ene a

0 1
  C      -88.778     -75.764    -322.325
  O      -88.997     -74.624    -321.513
  P      -89.886     -74.786    -320.191
  C      -88.128     -76.542    -319.423
  O      -89.499     -76.189    -319.512
  C      -87.812     -77.105    -318.036
  O      -86.499     -77.744    -318.064
  C      -87.782     -76.049    -316.923
  O      -88.260     -76.672    -315.724
  C      -86.300     -75.756    -316.790
  O      -85.960     -75.153    -315.550
  C      -85.728     -77.162    -316.995
  N      -84.298     -77.154    -317.301
  C      -83.416     -76.985    -316.239
  O      -83.768     -76.840    -315.070
  N      -82.092     -76.921    -316.569
  C      -81.573     -76.922    -317.834
  O      -80.386     -76.742    -318.068
  C      -82.554     -77.103    -318.918
  C      -83.846     -77.212    -318.607
  O      -91.357     -75.038    -320.766
  O      -89.842     -73.620    -319.263
  H      -86.377     -75.680    -314.844
  H      -91.883     -74.217    -320.730
  H      -81.434     -76.810    -315.810
  H      -82.177     -77.127    -319.931
  H      -84.592     -77.326    -319.388
  H      -85.903     -77.775    -316.102
  H      -85.989     -75.076    -317.591
  H      -88.373     -75.157    -317.151
  H      -88.545     -77.888    -317.802
  H      -87.516     -75.655    -319.599
  H      -87.886     -77.273    -320.203
  P      -89.044     -75.756    -314.662
  C      -91.309     -75.864    -315.959
  O      -90.258     -75.073    -315.451
  O      -87.992     -74.564    -314.462
  O      -89.390     -76.469    -313.395
  H      -87.600     -74.266    -315.300
  H      -91.523     -76.719    -315.313
  H      -91.043     -76.224    -316.957
  H      -92.210     -75.250    -316.038
  H      -88.170     -75.494    -323.163
  H      -89.717     -76.140    -322.672
  H      -88.281     -76.519    -321.753

 3  4  5  6  7  8  9  10  11  12  13  23  28  29  30  31  32 0
 6-311+G(2d,p)
 ****
 33  34 0
 6-311+G(2d,p)
 ****
 1  2  14  15  16  17  18  19  20  21  22  24  25  26 0
 3-21G
 ****
 27  35  36  37  38  39  40  41  42  43  44  45 0
 3-21G
 ****


