%nproc=1
%NoSave
%Mem=1900MB
#P OB98/GEN NMR

erre ene a

0 1
  C      839.201     801.677    -291.221
  O      838.558     802.958    -291.272
  P      839.444     804.258    -291.549
  C      838.466     804.746    -293.894
  O      839.615     804.460    -293.128
  C      838.788     804.731    -295.401
  O      839.070     803.376    -295.841
  C      837.624     805.193    -296.271
  O      837.293     806.558    -296.212
  C      838.005     804.626    -297.636
  O      838.938     805.473    -298.316
  C      838.679     803.287    -297.234
  N      837.829     802.129    -297.475
  C      837.944     801.494    -298.699
  O      838.706     801.895    -299.596
  N      837.142     800.399    -298.907
  C      836.221     799.915    -298.050
  O      835.503     798.953    -298.278
  C      836.124     800.640    -296.757
  C      836.907     801.690    -296.527
  O      840.687     804.404    -290.742
  O      838.407     805.458    -291.184
  H      839.118     805.092    -299.180
  H      838.915     806.138    -290.702
  H      837.238     799.946    -299.811
  H      835.377     800.279    -296.028
  H      836.852     802.236    -295.590
  H      839.606     803.133    -297.812
  H      837.131     804.511    -298.275
  H      836.723     804.651    -295.947
  H      839.688     805.322    -295.552
  H      838.064     805.719    -293.608
  H      837.669     804.018    -293.651
  P      836.290     807.184    -295.095
  C      838.091     808.816    -294.207
  O      837.188     807.792    -293.907
  O      835.105     806.364    -294.724
  O      835.795     808.520    -295.848
  H      834.885     808.687    -295.571
  H      838.612     809.093    -293.273
  H      837.561     809.702    -294.565
  H      838.834     808.496    -294.944
  H      838.471     800.919    -291.028
  H      839.932     801.676    -290.439
  H      839.680     801.481    -292.157

 3  4  5  6  7  8  9  10  11  12  13  23  28  29  30  31  32 0
 6-311+G(2d,p)
 ****
 33  34 0
 6-311+G(2d,p)
 ****
 1  2  14  15  16  17  18  19  20  21  22  24  25  26  27 0
 3-21G
 ****
 35  36  37  38  39  40  41  42  43  44  45 0
 3-21G
 ****


