%nproc=1
%NoSave
%Mem=1900MB
#P OB98/GEN NMR

erre ene a

0 1
  C     -771.061    -477.189    -470.588
  O     -769.858    -476.429    -470.484
  P     -769.034    -476.514    -469.123
  C     -766.744    -476.678    -470.455
  O     -767.535    -476.009    -469.480
  C     -765.626    -475.784    -470.929
  O     -766.167    -474.759    -471.835
  C     -764.876    -475.006    -469.805
  O     -763.480    -474.923    -470.210
  C     -765.531    -473.636    -469.831
  O     -764.713    -472.637    -469.275
  C     -765.774    -473.474    -471.370
  N     -766.793    -472.462    -471.656
  C     -766.419    -471.130    -471.588
  O     -765.308    -470.748    -471.252
  N     -767.415    -470.219    -471.894
  C     -768.730    -470.524    -472.184
  O     -769.570    -469.656    -472.432
  C     -769.064    -471.948    -472.197
  C     -768.095    -472.833    -471.956
  O     -768.869    -478.086    -468.944
  O     -769.668    -475.804    -467.969
  H     -768.770    -478.556    -469.792
  H     -765.180    -471.791    -469.317
  H     -767.162    -469.246    -471.875
  H     -770.086    -472.227    -472.409
  H     -768.328    -473.919    -471.961
  H     -764.836    -473.209    -471.865
  H     -766.478    -473.696    -469.293
  H     -764.970    -475.545    -468.841
  H     -764.909    -476.395    -471.528
  H     -767.393    -476.954    -471.299
  H     -766.353    -477.619    -470.022
  P     -762.373    -475.494    -469.177
  C     -760.006    -474.956    -470.148
  O     -761.102    -474.563    -469.337
  O     -761.933    -476.845    -469.934
  O     -762.881    -475.749    -467.793
  H     -761.753    -476.705    -470.880
  H     -759.388    -474.045    -470.388
  H     -760.358    -475.385    -471.103
  H     -759.372    -475.672    -469.620
  H     -771.500    -477.032    -471.551
  H     -771.747    -476.877    -469.828
  H     -770.838    -478.228    -470.463

 3  4  5  6  7  8  9  10  11  12  13  24  28  29  30  31  32 0
 6-311+G(2d,p)
 ****
 33  34 0
 6-311+G(2d,p)
 ****
 1  2  14  15  16  17  18  19  20  21  22  23  25  26  27 0
 3-21G
 ****
 35  36  37  38  39  40  41  42  43  44  45 0
 3-21G
 ****


