%nproc=1
%NoSave
%Mem=1900MB
#P OB98/GEN NMR

erre ene a

0 1
  C     -119.215      92.779     512.857
  O     -119.153      91.573     512.091
  P     -119.439      91.679     510.517
  C     -121.801      90.602     510.740
  O     -120.521      90.563     510.124
  C     -122.582      89.327     510.417
  O     -122.947      89.275     509.029
  C     -121.780      88.057     510.668
  O     -121.748      87.756     512.049
  C     -122.544      87.034     509.834
  O     -123.585      86.401     510.591
  C     -123.138      87.888     508.691
  N     -122.561      87.576     507.397
  C     -122.800      86.284     506.915
  O     -123.445      85.481     507.589
  N     -122.280      85.930     505.696
  C     -121.559      86.781     505.032
  N     -121.066      86.371     503.832
  C     -121.263      88.142     505.516
  C     -121.788      88.471     506.693
  O     -118.087      91.134     509.860
  O     -119.761      93.062     510.054
  H     -124.038      85.799     509.966
  H     -117.913      91.589     509.018
  H     -120.650      88.815     504.930
  H     -121.621      89.452     507.128
  H     -124.224      87.732     508.625
  H     -121.882      86.238     509.478
  H     -120.766      88.173     510.278
  H     -123.499      89.317     511.026
  H     -121.289      85.429     503.533
  H     -122.358      91.478     510.397
  H     -120.492      86.949     503.236
  H     -121.669      90.720     511.822
  P     -120.341      87.876     512.802
  C     -120.064      85.427     512.088
  O     -119.912      86.366     513.136
  O     -120.783      88.415     514.250
  O     -119.302      88.744     512.180
  H     -119.998      88.624     514.784
  H     -119.551      84.504     512.369
  H     -119.625      85.808     511.162
  H     -121.126      85.208     511.936
  H     -119.005      92.561     513.883
  H     -120.194      93.203     512.776
  H     -118.493      93.475     512.485

 3  4  5  6  7  8  9  10  11  12  13  21  23  27  28  29  30  32 0
 6-311+G(2d,p)
 ****
 34  35 0
 6-311+G(2d,p)
 ****
 1  2  14  15  16  17  18  19  20  22  24  25  26 0
 3-21G
 ****
 31  33  36  37  38  39  40  41  42  43  44  45  46 0
 3-21G
 ****


