%nproc=1
%NoSave
%Mem=1900MB
#P OB98/GEN NMR

erre ene a

0 1
  C       18.480     -93.644     253.175
  O       17.949     -92.483     252.577
  H       17.737     -94.047     253.869
  H       19.382     -93.403     253.743
  H       18.703     -94.400     252.419
  P       18.849     -91.652     251.539
  C       19.799     -92.395     249.274
  O       18.661     -92.398     250.124
  C       19.390     -92.251     247.807
  O       18.648     -93.430     247.392
  C       18.505     -91.026     247.530
  O       18.990     -90.331     246.379
  C       17.144     -91.632     247.223
  O       16.324     -90.785     246.423
  C       17.557     -92.960     246.581
  N       16.454     -93.910     246.526
  C       15.786     -94.009     245.301
  O       16.141     -93.324     244.343
  N       14.700     -94.839     245.205
  C       14.286     -95.479     246.255
  N       13.185     -96.262     246.100
  C       14.943     -95.380     247.574
  C       16.013     -94.589     247.637
  O       20.263     -91.449     251.963
  O       18.056     -90.278     251.318
  H       15.992     -90.052     246.986
  H       18.687     -89.595     250.994
  H       14.554     -95.929     248.420
  H       16.560     -94.453     248.563
  H       17.935     -92.802     245.561
  H       16.613     -91.824     248.166
  H       18.455     -90.334     248.369
  H       20.299     -92.230     247.194
  H       12.762     -96.296     245.179
  H       20.353     -93.328     249.427
  H       12.758     -96.786     246.849
  H       20.436     -91.549     249.551
  P       19.264     -88.761     246.564
  C       21.261     -87.316     247.377
  O       20.831     -88.562     246.850
  O       18.569     -88.428     247.967
  O       18.705     -87.925     245.462
  H       17.774     -87.881     247.821
  H       22.322     -87.334     247.513
  H       20.783     -87.143     248.319
  H       21.002     -86.532     246.696

 6  7  8  9  10  11  12  13  14  15  16  26  30  31  32  33  35 0
 6-311+G(2d,p)
 ****
 37  38 0
 6-311+G(2d,p)
 ****
 1  2  3  4  5  17  18  19  20  21  22  23  24  25 0
 3-21G
 ****
 27  28  29  34  36  39  40  41  42  43  44  45  46 0
 3-21G
 ****


