%nproc=1
%NoSave
%Mem=1900MB
#P OB98/GEN NMR

erre ene a

0 1
  C     -455.298     124.015    -511.711
  O     -454.809     123.126    -512.694
  H     -456.133     124.580    -512.133
  H     -454.514     124.719    -511.411
  H     -455.654     123.460    -510.838
  P     -453.543     122.204    -512.334
  C     -450.978     122.494    -512.406
  O     -452.243     123.079    -512.687
  C     -449.854     123.390    -512.940
  O     -449.896     123.449    -514.373
  C     -449.916     124.834    -512.440
  O     -449.354     124.937    -511.137
  C     -449.062     125.520    -513.498
  O     -447.671     125.261    -513.237
  C     -449.504     124.792    -514.775
  N     -450.864     127.687    -518.723
  C     -449.607     127.374    -518.242
  N     -448.559     127.943    -518.887
  N     -449.385     126.590    -517.213
  C     -450.523     126.157    -516.633
  C     -451.827     126.402    -517.003
  C     -452.054     127.216    -518.183
  O     -453.154     127.491    -518.654
  N     -452.724     125.864    -516.108
  C     -451.964     125.244    -515.231
  N     -450.617     125.398    -515.492
  O     -453.533     120.833    -512.943
  O     -453.534     122.158    -510.736
  H     -447.536     124.297    -513.325
  H     -454.031     121.386    -510.404
  H     -450.973     128.303    -519.516
  H     -452.326     124.667    -514.385
  H     -448.683     124.689    -515.498
  H     -449.199     126.608    -513.506
  H     -448.671     128.668    -519.587
  H     -450.934     125.227    -512.484
  H     -447.637     127.779    -518.513
  H     -448.899     122.923    -512.659
  H     -450.949     121.510    -512.890
  H     -450.856     122.355    -511.325
  P     -449.482     126.290    -510.276
  C     -448.145     128.502    -510.188
  O     -448.316     127.249    -510.822
  O     -449.497     126.091    -508.799
  O     -450.800     127.003    -510.852
  H     -451.630     126.679    -510.424
  H     -447.338     129.030    -510.653
  H     -447.922     128.350    -509.152
  H     -449.045     129.074    -510.279

 6  7  8  9  10  11  12  13  14  15  26  29  33  34 0
 6-311+G(2d,p)
 ****
 36  38  39  40  41 0
 6-311+G(2d,p)
 ****
 1  2  3  4  5  16  17  18  19  20  21  22  23  24  25 0
 3-21G
 ****
 27  28  30  31  32  35  37  42  43  44  45  46  47 0
 3-21G
 ****
 48  49 0
 3-21G
 ****


