%nproc=1
%NoSave
%Mem=1900MB
#P OB98/GEN NMR

erre ene a

0 1
  C     -313.372    -581.674     216.427
  O     -312.251    -582.026     217.244
  P     -311.142    -583.057     216.707
  C     -310.677    -583.800     219.110
  O     -310.092    -583.356     217.892
  C     -309.928    -583.305     220.360
  O     -308.541    -583.705     220.327
  C     -309.954    -581.783     220.562
  O     -309.970    -581.571     221.974
  C     -308.620    -581.359     219.962
  O     -308.212    -580.065     220.397
  C     -307.724    -582.524     220.402
  N     -306.521    -582.635     219.583
  C     -305.292    -582.586     220.240
  O     -305.251    -582.392     221.455
  N     -304.145    -582.705     219.500
  C     -304.209    -582.768     218.212
  N     -303.035    -582.862     217.534
  C     -305.487    -582.743     217.462
  C     -306.588    -582.686     218.206
  O     -310.516    -582.679     215.404
  O     -311.940    -584.442     216.569
  H     -308.224    -580.056     221.377
  H     -311.546    -584.969     215.852
  H     -305.494    -582.774     216.382
  H     -307.572    -582.666     217.754
  H     -307.413    -582.399     221.450
  H     -308.699    -581.335     218.866
  H     -310.804    -581.294     220.082
  H     -310.383    -583.797     221.229
  H     -302.180    -582.847     218.077
  H     -310.682    -584.895     219.115
  H     -302.965    -582.808     216.525
  H     -311.719    -583.471     219.151
  P     -311.289    -581.107     222.750
  C     -310.591    -578.640     222.704
  O     -310.922    -579.752     223.518
  O     -311.920    -582.154     223.602
  O     -312.293    -580.615     221.592
  H     -313.195    -580.582     221.952
  H     -310.573    -577.735     223.323
  H     -311.330    -578.512     221.904
  H     -309.599    -578.792     222.259
  H     -313.994    -580.981     216.954
  H     -313.935    -582.554     216.196
  H     -313.025    -581.224     215.520

 3  4  5  6  7  8  9  10  11  12  13  23  27  28  29  30  32 0
 6-311+G(2d,p)
 ****
 34  35 0
 6-311+G(2d,p)
 ****
 1  2  14  15  16  17  18  19  20  21  22  24  25  26 0
 3-21G
 ****
 31  33  36  37  38  39  40  41  42  43  44  45  46 0
 3-21G
 ****


