%nproc=1
%NoSave
%Mem=1900MB
#P OB98/GEN NMR

erre ene a

0 1
  C      -46.135    -483.746     438.425
  O      -46.042    -484.216     437.077
  P      -47.113    -485.330     436.624
  C      -49.692    -484.966     436.525
  O      -48.406    -484.554     436.075
  C      -50.710    -484.918     435.388
  O      -50.789    -483.589     434.823
  C      -50.378    -485.825     434.205
  O      -50.739    -487.175     434.467
  C      -51.256    -485.228     433.121
  O      -52.595    -485.735     433.235
  C      -51.219    -483.723     433.451
  N      -50.731    -481.018     429.185
  C      -51.847    -481.638     429.717
  N      -53.002    -481.490     429.029
  N      -51.833    -482.333     430.828
  C      -50.612    -482.369     431.421
  C      -49.432    -481.802     430.991
  C      -49.457    -481.054     429.747
  O      -48.495    -480.516     429.215
  N      -48.405    -482.047     431.870
  C      -48.971    -482.740     432.844
  N      -50.301    -482.973     432.609
  O      -47.610    -485.934     438.020
  O      -46.551    -486.378     435.727
  H      -52.922    -485.498     434.130
  H      -47.915    -486.853     437.895
  H      -50.800    -480.499     428.326
  H      -48.458    -483.091     433.732
  H      -52.211    -483.267     433.365
  H      -50.911    -485.479     432.109
  H      -53.099    -480.909     428.210
  H      -49.320    -485.728     433.924
  H      -53.837    -481.909     429.430
  H      -51.694    -485.181     435.795
  H      -50.022    -484.317     437.338
  H      -49.613    -485.980     436.938
  P      -49.545    -488.228     434.681
  C      -48.632    -489.460     436.776
  O      -49.379    -488.372     436.269
  O      -48.248    -487.404     434.226
  O      -49.704    -489.503     433.913
  H      -47.566    -488.014     433.883
  H      -47.716    -489.620     436.198
  H      -49.248    -490.370     436.749
  H      -48.356    -489.248     437.811
  H      -45.374    -483.014     438.601
  H      -46.003    -484.567     439.099
  H      -47.097    -483.305     438.584

 3  4  5  6  7  8  9  10  11  12  23  26  30  31  33  0
 6-311+G(2d,p)
 ****
 35  36  37  38 0
 6-311+G(2d,p)
 ****
 1  2  13  14  15  16  17  18  19  20  21  22  24  25  27  28  29 0
 3-21G
 ****
 32  34  39  40  41  42  43  44  45  46  47  48  49 0
 3-21G
 ****


