%nproc=1
%NoSave
%Mem=1900MB
#P OB98/GEN NMR

erre ene a

0 1
  C      240.939    -358.044    -221.748
  O      240.708    -357.369    -220.527
  H      241.474    -358.975    -221.541
  H      241.556    -357.423    -222.404
  H      239.997    -358.287    -222.247
  P      239.710    -356.116    -220.511
  C      241.570    -354.331    -220.643
  O      240.452    -354.929    -221.292
  C      242.415    -353.542    -221.641
  O      243.409    -352.767    -220.896
  C      243.184    -354.414    -222.653
  O      243.285    -353.666    -223.875
  C      244.534    -354.526    -221.970
  O      245.522    -355.016    -222.845
  C      244.696    -353.092    -221.464
  N      245.763    -352.940    -220.483
  C      247.037    -353.343    -220.864
  O      247.320    -353.797    -221.970
  N      248.012    -353.223    -219.904
  C      247.828    -352.748    -218.636
  O      248.738    -352.641    -217.823
  C      246.452    -352.363    -218.287
  C      245.497    -352.470    -219.208
  O      239.154    -355.745    -219.175
  O      238.549    -356.541    -221.531
  H      237.789    -356.897    -221.032
  H      245.700    -354.368    -223.563
  H      248.947    -353.509    -220.160
  H      246.272    -352.007    -217.280
  H      244.468    -352.202    -218.987
  H      244.864    -352.404    -222.296
  H      244.480    -355.230    -221.137
  H      242.693    -355.374    -222.849
  H      241.769    -352.812    -222.156
  H      242.173    -355.134    -220.204
  H      241.214    -353.669    -219.847
  P      242.264    -353.857    -225.106
  C      243.481    -355.869    -226.165
  O      242.275    -355.391    -225.580
  O      242.495    -352.885    -226.223
  O      240.804    -353.657    -224.483
  H      240.234    -353.210    -225.138
  H      243.362    -356.897    -226.437
  H      244.281    -355.776    -225.460
  H      243.707    -355.293    -227.038

 6  7  8  9  10  11  12  13  14  15  16  27  31  32  33  34  35 0
 6-311+G(2d,p)
 ****
 36  37 0
 6-311+G(2d,p)
 ****
 1  2  3  4  5  17  18  19  20  21  22  23  24  25 0
 3-21G
 ****
 26  28  29  30  38  39  40  41  42  43  44  45 0
 3-21G
 ****


