%nproc=1
%NoSave
%Mem=1900MB
#P OB98/GEN NMR

erre ene a

0 1
  C       47.843    -450.116     124.898
  O       47.317    -448.980     125.558
  H       48.185    -450.828     125.656
  H       48.689    -449.835     124.266
  H       47.068    -450.592     124.294
  P       46.789    -447.793     124.616
  C       44.406    -448.705     124.170
  O       45.205    -447.756     124.870
  C       43.225    -449.148     125.025
  O       43.664    -450.030     126.064
  C       42.485    -447.999     125.700
  O       41.554    -447.409     124.828
  C       41.785    -448.751     126.843
  O       40.589    -449.371     126.329
  C       42.817    -449.825     127.228
  N       42.970    -449.176     132.317
  C       41.951    -449.332     131.468
  N       41.969    -449.438     130.117
  C       43.234    -449.395     129.663
  C       44.393    -449.241     130.408
  C       44.233    -449.141     131.810
  N       45.306    -448.985     132.665
  N       45.505    -449.243     129.599
  C       45.030    -449.448     128.388
  N       43.661    -449.512     128.365
  O       47.232    -447.840     123.196
  O       47.295    -446.508     125.435
  H       40.031    -448.649     125.970
  H       47.167    -446.647     126.392
  H       40.960    -449.360     131.932
  H       45.644    -449.576     127.497
  H       42.332    -450.785     127.449
  H       41.482    -448.088     127.655
  H       43.188    -447.273     126.142
  H       42.535    -449.713     124.379
  H       45.013    -449.580     123.896
  H       45.081    -448.731     133.613
  H       46.211    -448.828     132.271
  H       44.059    -448.230     123.243
  P       41.388    -445.807     124.741
  C       43.459    -445.360     123.270
  O       42.042    -445.409     123.325
  O       41.911    -445.071     125.926
  O       39.834    -445.587     124.501
  H       39.590    -444.660     124.691
  H       43.768    -445.086     122.283
  H       43.859    -446.322     123.515
  H       43.818    -444.635     123.970

 6  7  8  9  10  11  12  13  14  15  25  28  32  33  34  35 0
 6-311+G(2d,p)
 ****
 36  39  40 0
 6-311+G(2d,p)
 ****
 1  2  3  4  5  16  17  18  19  20  21  22  23  24 0
 3-21G
 ****
 26  27  29  30  31  37  38  41  42  43  44  45  46  47 0
 3-21G
 ****
 48 0
 3-21G
 ****


