%nproc=1
%NoSave
%Mem=1900MB
#P OB98/GEN NMR

erre ene a

0 1
  C     -235.615     -22.910       4.421
  O     -236.412     -23.415       3.370
  P     -237.547     -24.519       3.584
  C     -236.054     -26.627       3.297
  O     -236.853     -25.844       4.175
  C     -235.508     -27.902       3.958
  O     -234.711     -27.547       5.105
  C     -236.667     -28.761       4.481
  O     -237.352     -29.640       3.613
  C     -236.133     -29.404       5.756
  O     -235.675     -30.741       5.545
  C     -234.968     -28.491       6.155
  N     -236.984     -28.584      10.805
  C     -236.721     -29.636       9.953
  N     -237.236     -30.835      10.312
  N     -236.040     -29.517       8.841
  C     -235.677     -28.238       8.569
  C     -235.868     -27.117       9.343
  C     -236.585     -27.274      10.586
  O     -236.912     -26.352      11.330
  N     -235.429     -25.982       8.716
  C     -235.006     -26.406       7.541
  N     -235.175     -27.766       7.391
  O     -238.556     -24.667       2.491
  O     -238.319     -23.936       4.876
  H     -235.644     -31.188       6.412
  H     -239.264     -24.161       4.781
  H     -237.582     -28.725      11.609
  H     -234.606     -25.775       6.756
  H     -234.047     -29.078       6.279
  H     -236.921     -29.465       6.516
  H     -237.882     -30.935      11.081
  H     -237.443     -28.065       4.822
  H     -237.207     -31.586       9.631
  H     -234.836     -28.439       3.282
  H     -235.232     -25.994       2.948
  H     -236.642     -26.904       2.417
  P     -238.921     -29.952       3.624
  C     -238.826     -32.182       4.877
  O     -239.252     -30.833       4.923
  O     -239.124     -30.998       2.426
  O     -239.805     -28.762       3.432
  H     -240.053     -30.980       2.129
  H     -239.353     -32.748       5.646
  H     -237.748     -32.236       5.071
  H     -239.037     -32.628       3.900
  H     -234.930     -22.185       4.033
  H     -235.068     -23.712       4.871
  H     -236.243     -22.450       5.155

 3  4  5  6  7  8  9  10  11  12  23  26  30  31 0
 6-311+G(2d,p)
 ****
 33  35  36  37  38 0
 6-311+G(2d,p)
 ****
 1  2  13  14  15  16  17  18  19  20  21  22  24  25 0
 3-21G
 ****
 27  28  29  32  34  39  40  41  42  43  44  45  46  47  48  49 0
 3-21G
 ****


