%nproc=1
%NoSave
%Mem=1900MB
#P OB98/GEN NMR

erre ene a

0 1
  C     -262.053    -305.208     570.289
  O     -262.345    -304.349     569.195
  P     -261.277    -303.437     568.442
  C     -262.140    -303.607     565.962
  O     -261.958    -302.812     567.136
  C     -263.041    -302.889     564.946
  O     -264.423    -302.973     565.403
  C     -262.691    -301.395     564.802
  O     -262.708    -300.927     563.454
  C     -263.647    -300.733     565.773
  O     -263.848    -299.349     565.532
  C     -264.894    -301.615     565.660
  N     -269.203    -299.906     567.794
  C     -268.631    -299.568     566.580
  N     -269.286    -298.640     565.840
  N     -267.518    -300.084     566.138
  C     -266.929    -300.934     567.013
  C     -267.382    -301.330     568.243
  C     -268.650    -300.801     568.703
  O     -269.206    -301.078     569.760
  N     -266.514    -302.220     568.839
  C     -265.526    -302.338     567.973
  N     -265.743    -301.579     566.843
  O     -259.912    -304.014     568.279
  O     -261.133    -302.143     569.407
  H     -264.315    -299.256     564.689
  H     -260.210    -301.829     569.316
  H     -270.088    -299.497     568.075
  H     -264.652    -302.968     568.110
  H     -265.529    -301.327     564.821
  H     -263.220    -300.816     566.785
  H     -270.087    -298.129     566.182
  H     -261.662    -301.202     565.125
  H     -268.756    -298.247     565.069
  H     -262.968    -303.406     563.973
  H     -262.626    -304.536     566.300
  H     -261.174    -303.877     565.524
  P     -261.511    -300.886     562.401
  C     -262.598    -302.307     560.551
  O     -262.121    -301.024     560.927
  O     -260.752    -302.278     562.589
  O     -260.558    -299.748     562.574
  H     -259.816    -302.109     562.870
  H     -262.735    -302.325     559.471
  H     -263.549    -302.509     561.035
  H     -261.867    -303.074     560.826
  H     -262.948    -305.702     570.603
  H     -261.660    -304.631     571.100
  H     -261.330    -305.937     569.987

 3  4  5  6  7  8  9  10  11  12  23  26  30  31 0
 6-311+G(2d,p)
 ****
 33  35  36  37  38 0
 6-311+G(2d,p)
 ****
 1  2  13  14  15  16  17  18  19  20  21  22  24  25 0
 3-21G
 ****
 27  28  29  32  34  39  40  41  42  43  44  45  46  47  48  49 0
 3-21G
 ****


