%nproc=1
%NoSave
%Mem=1900MB
#P OB98/GEN NMR

erre ene a

0 1
  C      184.125     -63.043    -183.056
  O      184.360     -64.271    -182.396
  H      183.978     -62.252    -182.318
  H      185.000     -62.798    -183.664
  H      183.250     -63.113    -183.708
  P      183.104     -64.976    -181.690
  C      183.455     -63.221    -179.809
  O      182.527     -63.913    -180.630
  C      182.834     -61.936    -179.267
  O      181.630     -62.280    -178.524
  C      183.752     -61.137    -178.328
  O      183.563     -59.743    -178.586
  C      183.207     -61.463    -176.949
  O      183.492     -60.450    -175.991
  C      181.720     -61.625    -177.247
  N      179.283     -61.274    -172.799
  C      179.583     -60.353    -173.737
  N      180.190     -60.542    -174.927
  C      180.434     -61.847    -175.134
  C      180.180     -62.901    -174.274
  C      179.590     -62.570    -173.041
  N      179.344     -63.491    -172.049
  N      180.627     -64.088    -174.821
  C      181.163     -63.750    -175.978
  N      181.071     -62.407    -176.209
  O      183.806     -66.082    -180.766
  O      182.099     -65.575    -182.612
  H      183.082     -60.696    -175.139
  H      183.935     -66.901    -181.279
  H      179.308     -59.328    -173.501
  H      181.652     -64.427    -176.665
  H      181.195     -60.664    -177.313
  H      183.643     -62.404    -176.596
  H      184.814     -61.391    -178.428
  H      182.520     -61.317    -180.115
  H      184.337     -62.966    -180.405
  H      179.020     -63.146    -171.160
  H      179.667     -64.439    -172.171
  H      183.764     -63.873    -178.985
  P      184.679     -58.996    -179.461
  C      185.891     -57.704    -177.553
  O      185.959     -58.731    -178.536
  O      184.065     -57.532    -179.668
  O      184.969     -59.660    -180.767
  H      184.331     -57.173    -180.533
  H      186.820     -57.655    -177.024
  H      185.100     -57.920    -176.866
  H      185.702     -56.765    -178.030

 6  7  8  9  10  11  12  13  14  15  25  28  32  33  34  35 0
 6-311+G(2d,p)
 ****
 36  39  40 0
 6-311+G(2d,p)
 ****
 1  2  3  4  5  16  17  18  19  20  21  22  23  24 0
 3-21G
 ****
 26  27  29  30  31  37  38  41  42  43  44  45  46  47 0
 3-21G
 ****
 48 0
 3-21G
 ****


