%nproc=1
%NoSave
%Mem=1900MB
#P OB98/GEN NMR

erre ene a

0 1
  C     -157.680    -265.748      89.280
  O     -157.698    -267.147      89.488
  P     -159.089    -267.929      89.661
  C     -161.079    -267.730      91.287
  O     -159.899    -267.105      90.775
  C     -161.019    -267.827      92.812
  O     -160.797    -266.520      93.399
  C     -162.305    -268.352      93.449
  O     -162.395    -269.754      93.302
  C     -162.135    -267.876      94.889
  O     -161.295    -268.774      95.639
  C     -161.426    -266.508      94.698
  N     -162.344    -265.381      94.845
  C     -162.526    -264.911      96.146
  O     -161.959    -265.464      97.096
  N     -163.388    -263.862      96.354
  C     -164.023    -263.350      95.337
  N     -164.872    -262.316      95.620
  C     -163.877    -263.842      93.958
  C     -163.032    -264.852      93.784
  O     -158.972    -269.395      89.906
  O     -159.874    -267.581      88.309
  H     -161.695    -269.669      95.538
  H     -159.509    -268.072      87.539
  H     -164.442    -263.381      93.155
  H     -162.868    -265.269      92.803
  H     -160.614    -266.397      95.428
  H     -163.087    -267.807      95.417
  H     -163.171    -267.849      93.004
  H     -160.171    -268.466      93.085
  H     -164.964    -262.027      96.580
  H     -161.152    -268.737      90.864
  H     -165.450    -261.867      94.913
  H     -161.965    -267.159      90.966
  P     -163.804    -270.493      93.535
  C     -165.608    -270.375      95.351
  O     -164.220    -270.274      95.058
  O     -163.876    -271.904      93.035
  O     -164.843    -269.564      92.735
  H     -165.444    -270.130      92.227
  H     -165.725    -270.540      96.429
  H     -166.061    -271.215      94.809
  H     -166.115    -269.450      95.072
  H     -156.668    -265.414      89.189
  H     -158.144    -265.258      90.110
  H     -158.215    -265.514      88.383

 3  4  5  6  7  8  9  10  11  12  13  23  27  28  29  30  32 0
 6-311+G(2d,p)
 ****
 34  35 0
 6-311+G(2d,p)
 ****
 1  2  14  15  16  17  18  19  20  21  22  24  25  26 0
 3-21G
 ****
 31  33  36  37  38  39  40  41  42  43  44  45  46 0
 3-21G
 ****


