%nproc=1
%NoSave
%Mem=1900MB
#P OB98/GEN NMR

erre ene a

0 1
  C       26.837     -16.187     -18.430
  O       28.039     -16.071     -19.166
  H       26.484     -17.219     -18.493
  H       26.073     -15.527     -18.851
  H       27.010     -15.934     -17.381
  P       28.685     -14.604     -19.245
  C       28.029     -14.564     -21.752
  O       28.007     -13.881     -20.507
  C       28.282     -13.584     -22.894
  O       27.238     -12.588     -22.954
  C       29.603     -12.830     -22.795
  O       30.670     -13.605     -23.315
  C       29.305     -11.599     -23.638
  O       29.430     -11.893     -25.046
  C       27.843     -11.305     -23.272
  N       27.183      -6.461     -22.016
  C       27.410      -7.039     -23.248
  N       27.503      -6.199     -24.303
  N       27.547      -8.324     -23.433
  C       27.489      -9.038     -22.284
  C       27.272      -8.584     -21.004
  C       27.068      -7.163     -20.822
  O       26.782      -6.600     -19.770
  N       27.264      -9.619     -20.105
  C       27.510     -10.690     -20.835
  N       27.659     -10.388     -22.164
  O       30.183     -14.883     -19.742
  O       28.676     -13.830     -17.971
  H       28.854     -12.645     -25.266
  H       30.784     -14.263     -19.289
  H       27.055      -5.468     -21.937
  H       27.578     -11.700     -20.454
  H       27.287     -10.887     -24.118
  H       30.006     -10.789     -23.430
  H       27.696      -5.215     -24.189
  H       29.805     -12.522     -21.762
  H       27.743      -6.619     -25.193
  H       28.234     -14.153     -23.832
  H       27.063     -15.056     -21.903
  H       28.818     -15.321     -21.733
  P       32.128     -13.407     -22.683
  C       32.510     -11.408     -24.295
  O       32.588     -11.894     -22.963
  O       33.060     -14.269     -23.658
  O       32.263     -13.866     -21.271
  H       33.322     -15.099     -23.217
  H       32.847     -10.393     -24.325
  H       31.496     -11.457     -24.634
  H       33.128     -12.008     -24.930

 6  7  8  9  10  11  12  13  14  15  26  29  33  34 0
 6-311+G(2d,p)
 ****
 36  38  39  40  41 0
 6-311+G(2d,p)
 ****
 1  2  3  4  5  16  17  18  19  20  21  22  23  24  25 0
 3-21G
 ****
 27  28  30  31  32  35  37  42  43  44  45  46  47 0
 3-21G
 ****
 48  49 0
 3-21G
 ****


