%nproc=1
%NoSave
%Mem=1900MB
#P OB98/GEN NMR

erre ene a

0 1
  C      271.547    -304.606     464.068
  O      270.360    -303.902     463.750
  P      270.116    -302.489     464.473
  C      270.002    -303.535     466.863
  O      269.348    -302.788     465.844
  C      269.155    -303.523     468.136
  O      269.031    -302.183     468.653
  C      267.727    -304.009     467.919
  O      267.659    -305.424     467.853
  C      267.018    -303.429     469.134
  O      267.187    -304.271     470.284
  C      267.756    -302.088     469.321
  N      266.984    -300.944     468.848
  C      265.852    -300.624     469.593
  O      265.503    -301.268     470.588
  N      265.121    -299.561     469.144
  C      265.366    -298.838     468.017
  O      264.637    -297.927     467.630
  C      266.558    -299.241     467.245
  C      267.294    -300.261     467.686
  O      269.013    -301.781     463.562
  O      271.341    -301.650     464.621
  H      266.677    -305.087     470.109
  H      269.174    -300.817     463.532
  H      264.312    -299.297     469.688
  H      266.779    -298.691     466.341
  H      268.169    -300.584     467.128
  H      267.988    -301.930     470.381
  H      265.939    -303.323     468.968
  H      267.309    -303.560     467.010
  H      269.658    -304.141     468.894
  H      270.977    -303.088     467.065
  H      270.159    -304.558     466.511
  P      267.386    -306.075     466.410
  C      264.987    -305.072     466.187
  O      265.791    -306.221     466.320
  O      267.930    -307.570     466.649
  O      268.053    -305.339     465.300
  H      267.795    -307.869     467.568
  H      265.472    -304.306     465.574
  H      264.774    -304.666     467.178
  H      264.045    -305.354     465.711
  H      271.576    -305.523     463.517
  H      271.565    -304.819     465.116
  H      272.396    -304.008     463.811

 3  4  5  6  7  8  9  10  11  12  13  23  28  29  30  31  32 0
 6-311+G(2d,p)
 ****
 33  34 0
 6-311+G(2d,p)
 ****
 1  2  14  15  16  17  18  19  20  21  22  24  25  26 0
 3-21G
 ****
 27  35  36  37  38  39  40  41  42  43  44  45 0
 3-21G
 ****


