%nproc=1
%NoSave
%Mem=1900MB
#P OB98/GEN NMR

erre ene a

0 1
  C     -245.955    -166.141      72.372
  O     -244.657    -166.667      72.156
  P     -244.344    -168.153      72.672
  C     -245.328    -169.294      70.552
  O     -245.388    -169.151      71.964
  C     -244.129    -170.154      70.143
  O     -244.224    -171.457      70.782
  C     -244.032    -170.393      68.632
  O     -242.652    -170.469      68.250
  C     -244.630    -171.773      68.454
  O     -244.166    -172.395      67.256
  C     -244.164    -172.457      69.739
  N     -246.188    -176.759      68.025
  C     -245.190    -175.981      67.475
  N     -244.735    -176.354      66.260
  N     -244.681    -174.929      68.065
  C     -245.238    -174.669      69.272
  C     -246.221    -175.379      69.930
  C     -246.786    -176.529      69.262
  O     -247.689    -177.250      69.681
  N     -246.503    -174.830      71.153
  C     -245.726    -173.766      71.227
  N     -244.967    -173.606      70.094
  O     -244.837    -168.114      74.199
  O     -242.912    -168.557      72.584
  H     -244.530    -173.301      67.247
  H     -244.066    -168.079      74.793
  H     -246.555    -177.552      67.527
  H     -245.691    -173.071      72.051
  H     -243.119    -172.781      69.664
  H     -245.723    -171.708      68.407
  H     -245.131    -177.111      65.724
  H     -244.539    -169.636      68.019
  H     -244.035    -175.776      65.814
  H     -243.215    -169.683      70.519
  H     -245.228    -168.303      70.102
  H     -246.256    -169.744      70.187
  P     -242.290    -169.883      66.798
  C     -242.074    -167.598      68.024
  O     -242.534    -168.306      66.888
  O     -243.494    -170.407      65.882
  O     -240.957    -170.312      66.281
  H     -243.211    -170.471      64.950
  H     -241.314    -166.878      67.708
  H     -241.644    -168.263      68.779
  H     -242.919    -167.060      68.468
  H     -246.008    -165.149      71.975
  H     -246.160    -166.117      73.422
  H     -246.677    -166.760      71.882

 3  4  5  6  7  8  9  10  11  12  23  26  30  31 0
 6-311+G(2d,p)
 ****
 33  35  36  37  38 0
 6-311+G(2d,p)
 ****
 1  2  13  14  15  16  17  18  19  20  21  22  24  25 0
 3-21G
 ****
 27  28  29  32  34  39  40  41  42  43  44  45  46  47  48  49 0
 3-21G
 ****


