%nproc=1
%NoSave
%Mem=1900MB
#P OB98/GEN NMR

erre ene a

0 1
  C      179.554     438.548    -165.999
  O      178.346     439.243    -166.181
  P      177.625     439.275    -167.617
  C      178.835     441.493    -168.121
  O      178.566     440.178    -168.568
  C      179.877     442.153    -169.020
  O      181.185     441.555    -168.824
  C      179.609     441.983    -170.508
  O      178.464     442.621    -171.040
  C      180.953     442.374    -171.099
  O      181.094     443.789    -171.186
  C      181.929     441.783    -170.051
  N      182.582     440.563    -170.529
  C      183.509     440.732    -171.554
  O      183.787     441.823    -172.048
  N      184.089     439.581    -172.024
  C      183.811     438.311    -171.608
  O      184.335     437.318    -172.107
  C      182.809     438.197    -170.540
  C      182.249     439.309    -170.049
  O      176.197     439.677    -167.606
  O      177.887     437.798    -168.190
  H      180.377     444.113    -171.773
  H      178.825     437.550    -168.283
  H      184.753     439.682    -172.773
  H      182.574     437.204    -170.175
  H      181.506     439.246    -169.260
  H      182.712     442.517    -169.814
  H      181.082     441.970    -172.114
  H      179.457     440.909    -170.708
  H      179.959     443.204    -168.737
  H      179.229     441.445    -167.099
  H      177.905     442.076    -168.096
  P      177.541     441.971    -172.180
  C      178.627     443.110    -174.247
  O      178.391     441.906    -173.543
  O      176.141     442.470    -172.273
  O      177.514     440.426    -171.734
  H      176.663     440.037    -172.002
  H      179.181     442.873    -175.153
  H      179.233     443.796    -173.639
  H      177.687     443.586    -174.516
  H      179.871     438.645    -164.982
  H      180.302     438.957    -166.646
  H      179.409     437.513    -166.230

 3  4  5  6  7  8  9  10  11  12  13  23  28  29  30  31  32 0
 6-311+G(2d,p)
 ****
 33  34 0
 6-311+G(2d,p)
 ****
 1  2  14  15  16  17  18  19  20  21  22  24  25  26  27 0
 3-21G
 ****
 35  36  37  38  39  40  41  42  43  44  45 0
 3-21G
 ****


