%nproc=1
%NoSave
%Mem=1900MB
#P OB98/GEN NMR

erre ene a

0 1
  C      761.034     262.471     507.465
  O      760.269     263.068     508.492
  H      760.860     263.011     506.530
  H      760.726     261.428     507.331
  H      762.100     262.513     507.709
  P      760.560     262.562     509.984
  C      759.230     260.909     511.528
  O      759.690     261.227     510.224
  C      758.007     259.994     511.436
  O      756.896     260.676     510.830
  C      758.205     258.766     510.554
  O      759.042     257.794     511.139
  C      756.762     258.297     510.385
  O      756.341     257.489     511.485
  C      755.991     259.638     510.373
  N      755.443     259.940     509.053
  C      754.207     259.312     508.763
  O      753.678     258.597     509.610
  N      753.665     259.493     507.521
  C      754.308     260.206     506.636
  N      753.721     260.317     505.407
  C      755.590     260.877     506.904
  C      756.096     260.704     508.127
  O      759.796     263.655     510.870
  O      762.005     262.405     510.320
  H      757.124     256.963     511.754
  H      758.890     263.825     510.588
  H      756.062     261.466     506.135
  H      757.048     261.152     508.398
  H      755.157     259.607     511.087
  H      756.636     257.705     509.484
  H      758.581     259.075     509.570
  H      757.722     259.693     512.458
  H      752.853     259.792     505.257
  H      758.984     261.815     512.082
  H      754.155     260.774     504.613
  H      760.049     260.412     512.058
  P      760.052     256.927     510.271
  C      760.977     254.524     510.536
  O      759.863     255.392     510.719
  O      761.477     257.378     510.281
  O      759.372     256.935     508.812
  H      758.479     256.566     508.780
  H      760.722     253.540     510.871
  H      761.810     254.888     511.101
  H      761.237     254.491     509.499

 6  7  8  9  10  11  12  13  14  15  16  26  30  31  32  33  35 0
 6-311+G(2d,p)
 ****
 37  38 0
 6-311+G(2d,p)
 ****
 1  2  3  4  5  17  18  19  20  21  22  23  24  25 0
 3-21G
 ****
 27  28  29  34  36  39  40  41  42  43  44  45  46 0
 3-21G
 ****


