%nproc=1
%NoSave
%Mem=1900MB
#P OB98/GEN NMR

erre ene a

0 1
  C     -151.946       2.224    -123.799
  O     -151.025       3.174    -123.298
  H     -151.644       1.938    -124.811
  H     -152.952       2.658    -123.842
  H     -151.952       1.334    -123.164
  P     -151.338       3.767    -121.840
  C     -151.473       6.149    -122.853
  O     -152.116       5.153    -122.071
  C     -151.714       7.536    -122.259
  O     -150.945       8.536    -122.962
  C     -153.170       7.991    -122.301
  O     -153.898       7.468    -121.203
  C     -153.012       9.503    -122.233
  O     -152.778       9.938    -120.874
  C     -151.763       9.733    -123.101
  N     -150.730      12.795    -126.983
  C     -150.341      12.870    -125.661
  N     -149.581      13.932    -125.310
  N     -150.668      11.987    -124.754
  C     -151.475      11.008    -125.229
  C     -151.935      10.825    -126.515
  C     -151.515      11.781    -127.522
  O     -151.759      11.722    -128.725
  N     -152.718       9.701    -126.609
  C     -152.760       9.224    -125.379
  N     -152.027       9.989    -124.501
  O     -149.897       4.235    -121.310
  O     -151.979       2.815    -120.885
  H     -151.922       9.588    -120.573
  H     -149.839       4.044    -120.356
  H     -150.422      13.485    -127.644
  H     -153.294       8.337    -125.071
  H     -151.163      10.576    -122.735
  H     -153.912      10.019    -122.571
  H     -149.546      14.769    -125.874
  H     -153.641       7.718    -123.255
  H     -149.362      14.023    -124.326
  H     -151.349       7.520    -121.224
  H     -151.871       6.113    -123.869
  H     -150.395       5.944    -122.881
  P     -155.369       6.887    -121.475
  C     -156.439       8.989    -120.387
  O     -156.390       8.128    -121.515
  O     -155.723       6.156    -120.092
  O     -155.461       5.941    -122.626
  H     -155.658       5.186    -120.209
  H     -157.159       9.762    -120.559
  H     -155.476       9.427    -120.231
  H     -156.720       8.427    -119.521

 6  7  8  9  10  11  12  13  14  15  26  29  33  34 0
 6-311+G(2d,p)
 ****
 36  38  39  40  41 0
 6-311+G(2d,p)
 ****
 1  2  3  4  5  16  17  18  19  20  21  22  23  24  25 0
 3-21G
 ****
 27  28  30  31  32  35  37  42  43  44  45  46  47 0
 3-21G
 ****
 48  49 0
 3-21G
 ****


