%nproc=1
%NoSave
%Mem=1900MB
#P OB98/GEN NMR

erre ene a

0 1
  C     -478.598    -195.495    -425.872
  O     -478.780    -194.855    -424.612
  P     -479.676    -193.527    -424.560
  C     -479.302    -191.010    -425.056
  O     -478.759    -192.315    -425.088
  C     -478.242    -189.957    -425.375
  O     -477.340    -189.828    -424.233
  C     -477.375    -190.274    -426.593
  O     -477.031    -189.028    -427.212
  C     -476.123    -190.884    -425.985
  O     -475.013    -190.824    -426.870
  C     -475.999    -190.039    -424.725
  N     -471.781    -189.663    -421.843
  C     -472.335    -188.821    -422.745
  N     -473.462    -188.999    -423.471
  C     -474.032    -190.172    -423.188
  C     -473.572    -191.151    -422.326
  C     -472.395    -190.862    -421.615
  N     -471.831    -191.706    -420.687
  N     -474.415    -192.245    -422.320
  C     -475.372    -191.936    -423.178
  N     -475.193    -190.687    -423.712
  O     -479.794    -193.248    -422.987
  O     -481.022    -193.641    -425.193
  H     -474.227    -191.179    -426.413
  H     -480.715    -193.401    -422.689
  H     -471.803    -187.890    -422.897
  H     -476.202    -192.576    -423.449
  H     -475.559    -189.053    -424.928
  H     -476.308    -191.939    -425.741
  H     -477.860    -190.939    -427.324
  H     -478.738    -188.988    -425.494
  H     -479.697    -190.817    -424.048
  H     -471.067    -191.365    -420.128
  H     -472.372    -192.506    -420.381
  H     -480.133    -190.938    -425.764
  P     -477.527    -188.801    -428.729
  C     -476.090    -188.547    -430.876
  O     -476.325    -189.270    -429.675
  O     -477.528    -187.205    -428.877
  O     -478.871    -189.389    -429.027
  H     -478.185    -186.930    -429.542
  H     -475.017    -188.563    -431.077
  H     -476.427    -187.508    -430.792
  H     -476.610    -189.037    -431.698
  H     -477.982    -196.361    -425.747
  H     -478.126    -194.817    -426.552
  H     -479.550    -195.788    -426.264

 3  4  5  6  7  8  9  10  11  12  22  25  29  30  31  32 0
 6-311+G(2d,p)
 ****
 33  36  37 0
 6-311+G(2d,p)
 ****
 1  2  13  14  15  16  17  18  19  20  21  23  24  26 0
 3-21G
 ****
 27  28  34  35  38  39  40  41  42  43  44  45  46  47  48 0
 3-21G
 ****


