%nproc=1
%NoSave
%Mem=1900MB
#P OB98/GEN NMR

erre ene a

0 1
  C      374.576    -471.774     145.866
  O      375.168    -472.952     146.371
  H      374.278    -471.947     144.828
  H      375.291    -470.945     145.894
  H      373.689    -471.519     146.452
  P      375.711    -472.895     147.879
  C      373.784    -474.569     148.227
  O      374.491    -473.457     148.764
  C      372.880    -475.192     149.302
  O      373.720    -475.789     150.317
  C      371.966    -474.176     149.991
  O      370.698    -474.783     150.244
  C      372.667    -473.899     151.308
  O      371.767    -473.461     152.323
  C      373.336    -475.246     151.594
  N      374.865    -474.859     156.447
  C      373.659    -475.136     155.899
  N      373.345    -475.236     154.589
  C      374.437    -475.063     153.824
  C      375.722    -474.773     154.239
  C      375.920    -474.662     155.626
  N      377.131    -474.353     156.194
  N      376.565    -474.626     153.146
  C      375.796    -474.838     152.093
  N      374.499    -475.090     152.452
  O      376.266    -471.583     148.316
  O      376.744    -474.118     147.900
  H      371.464    -472.558     152.100
  H      376.375    -474.902     147.457
  H      372.842    -475.294     156.597
  H      376.121    -474.811     151.058
  H      372.657    -475.954     152.085
  H      373.425    -473.114     151.168
  H      371.831    -473.267     149.402
  H      372.301    -476.006     148.844
  H      374.488    -475.325     147.860
  H      377.192    -474.310     157.204
  H      377.940    -474.224     155.598
  H      373.181    -474.217     147.386
  P      369.377    -474.007     149.766
  C      369.288    -475.683     147.801
  O      369.128    -474.324     148.209
  O      369.288    -472.571     150.150
  O      368.214    -474.854     150.473
  H      367.510    -474.250     150.769
  H      369.097    -475.765     146.751
  H      368.599    -476.300     148.338
  H      370.288    -476.002     148.007

 6  7  8  9  10  11  12  13  14  15  25  28  32  33  34  35 0
 6-311+G(2d,p)
 ****
 36  39  40 0
 6-311+G(2d,p)
 ****
 1  2  3  4  5  16  17  18  19  20  21  22  23  24 0
 3-21G
 ****
 26  27  29  30  31  37  38  41  42  43  44  45  46  47 0
 3-21G
 ****
 48 0
 3-21G
 ****


