%nproc=1
%NoSave
%Mem=1900MB
#P OB98/GEN NMR

erre ene a

0 1
  C      -98.962    -205.837      16.877
  O      -98.456    -206.948      17.590
  H      -98.122    -205.295      16.434
  H      -99.501    -205.165      17.551
  H      -99.625    -206.176      16.077
  P      -99.534    -207.862      18.351
  C      -99.347    -209.556      16.418
  O     -100.216    -208.728      17.181
  C     -100.131    -210.302      15.338
  O     -101.057    -209.374      14.718
  C      -99.246    -210.883      14.234
  O      -99.764    -212.150      13.834
  C      -99.396    -209.889      13.096
  O      -99.149    -210.479      11.823
  C     -100.829    -209.400      13.299
  N     -100.871    -206.741       8.946
  C     -100.778    -208.065       9.195
  N     -100.791    -208.693      10.390
  C     -100.965    -207.808      11.389
  C     -101.070    -206.432      11.289
  C     -101.010    -205.894       9.992
  N     -101.077    -204.545       9.731
  N     -101.191    -205.865      12.543
  C     -101.174    -206.883      13.383
  N     -101.021    -208.077      12.732
  O     -100.482    -207.136      19.245
  O      -98.595    -208.937      19.073
  H      -99.244    -209.785      11.138
  H      -97.895    -209.259      18.476
  H     -100.673    -208.704       8.322
  H     -101.253    -206.808      14.462
  H     -101.569    -210.063      12.836
  H      -98.683    -209.065      13.231
  H      -98.206    -210.991      14.545
  H     -100.736    -211.081      15.816
  H      -98.846    -210.280      17.071
  H     -101.041    -204.244       8.770
  H     -101.200    -203.899      10.497
  H      -98.587    -208.916      15.961
  P      -98.884    -213.460      14.116
  C     -100.734    -214.636      15.477
  O      -99.400    -214.140      15.476
  O      -97.407    -213.289      14.004
  O      -99.423    -214.483      13.002
  H      -98.672    -215.014      12.673
  H     -100.956    -215.062      16.433
  H     -100.836    -215.386      14.721
  H     -101.413    -213.833      15.278

 6  7  8  9  10  11  12  13  14  15  25  28  32  33  34  35 0
 6-311+G(2d,p)
 ****
 36  39  40 0
 6-311+G(2d,p)
 ****
 1  2  3  4  5  16  17  18  19  20  21  22  23  24 0
 3-21G
 ****
 26  27  29  30  31  37  38  41  42  43  44  45  46  47 0
 3-21G
 ****
 48 0
 3-21G
 ****


