%nproc=1
%NoSave
%Mem=1900MB
#P OB98/GEN NMR

erre ene a

0 1
  C      501.248    -306.485      17.442
  O      500.103    -306.833      16.684
  H      500.931    -305.941      18.334
  H      501.901    -305.837      16.850
  H      501.790    -307.385      17.749
  P      500.335    -307.739      15.383
  C      498.442    -309.448      15.923
  O      498.922    -308.431      15.056
  C      496.971    -309.736      15.619
  O      496.156    -308.722      16.279
  C      496.636    -309.695      14.123
  O      495.656    -310.698      13.835
  C      496.031    -308.310      13.937
  O      495.177    -308.210      12.803
  C      495.295    -308.134      15.274
  N      495.022    -306.736      15.582
  C      493.697    -306.319      15.564
  O      492.731    -307.062      15.372
  N      493.490    -304.974      15.769
  C      494.461    -304.033      15.965
  O      494.213    -302.843      16.115
  C      495.849    -304.533      15.969
  C      496.057    -305.838      15.780
  O      501.219    -308.956      15.932
  O      500.969    -307.050      14.219
  H      502.170    -308.751      15.853
  H      494.423    -308.822      12.946
  H      492.529    -304.663      15.756
  H      496.636    -303.811      16.106
  H      497.073    -306.233      15.757
  H      494.364    -308.705      15.274
  H      496.827    -307.568      13.837
  H      497.514    -309.844      13.490
  H      496.700    -310.696      16.059
  H      498.540    -309.107      16.961
  H      499.045    -310.355      15.789
  P      496.048    -311.831      12.760
  C      495.173    -313.838      14.198
  O      495.036    -313.050      13.024
  O      497.449    -312.337      13.339
  O      496.090    -311.313      11.363
  H      497.482    -312.363      14.316
  H      494.420    -314.598      14.207
  H      495.062    -313.215      15.061
  H      496.141    -314.295      14.210

 6  7  8  9  10  11  12  13  14  15  16  27  31  32  33  34  35 0
 6-311+G(2d,p)
 ****
 36  37 0
 6-311+G(2d,p)
 ****
 1  2  3  4  5  17  18  19  20  21  22  23  24  25 0
 3-21G
 ****
 26  28  29  30  38  39  40  41  42  43  44  45 0
 3-21G
 ****


