%nproc=1
%NoSave
%Mem=1900MB
#P OB98/GEN NMR

erre ene a

0 1
  C      727.482    -348.467     -33.724
  O      727.210    -349.809     -33.349
  H      727.733    -348.444     -34.787
  H      728.322    -348.074     -33.147
  H      726.591    -347.849     -33.560
  P      726.849    -350.064     -31.809
  C      725.642    -352.277     -32.344
  O      726.744    -351.665     -31.683
  C      725.627    -353.791     -32.069
  O      726.591    -354.423     -32.950
  C      726.000    -354.141     -30.623
  O      725.190    -355.243     -30.193
  C      727.450    -354.585     -30.727
  O      727.824    -355.473     -29.677
  C      727.488    -355.204     -32.126
  N      731.229    -358.092     -34.064
  C      729.956    -358.385     -33.701
  N      729.024    -357.543     -33.210
  C      729.494    -356.287     -33.142
  C      730.772    -355.841     -33.463
  C      731.664    -356.820     -33.932
  N      732.970    -356.541     -34.273
  N      730.889    -354.483     -33.216
  C      729.703    -354.110     -32.758
  N      728.832    -355.169     -32.688
  O      725.681    -349.304     -31.277
  O      728.254    -349.757     -31.097
  H      727.586    -355.050     -28.828
  H      728.996    -350.154     -31.577
  H      729.652    -359.419     -33.832
  H      729.427    -353.100     -32.461
  H      727.157    -356.245     -32.129
  H      728.109    -353.704     -30.675
  H      725.874    -353.299     -29.940
  H      724.637    -354.188     -32.336
  H      725.713    -352.106     -33.423
  H      733.547    -357.300     -34.623
  H      733.307    -355.591     -34.214
  H      724.724    -351.817     -31.972
  P      724.603    -355.227     -28.698
  C      722.071    -355.119     -29.202
  O      723.156    -355.911     -28.713
  O      724.695    -353.915     -27.978
  O      725.499    -356.338     -27.960
  H      725.679    -356.041     -27.049
  H      721.166    -355.689     -29.159
  H      722.266    -354.834     -30.215
  H      721.969    -354.242     -28.598

 6  7  8  9  10  11  12  13  14  15  25  28  32  33  34  35 0
 6-311+G(2d,p)
 ****
 36  39  40 0
 6-311+G(2d,p)
 ****
 1  2  3  4  5  16  17  18  19  20  21  22  23  24 0
 3-21G
 ****
 26  27  29  30  31  37  38  41  42  43  44  45  46  47 0
 3-21G
 ****
 48 0
 3-21G
 ****


