%nproc=1
%NoSave
%Mem=1900MB
#P OB98/GEN NMR

erre ene a

0 1
  C       44.341    -102.219     219.386
  O       45.690    -102.381     219.794
  P       45.978    -102.620     221.350
  C       48.108    -101.132     221.179
  O       47.539    -102.365     221.590
  C       49.058    -100.611     222.262
  O       48.358    -100.476     223.520
  C       50.229    -101.540     222.549
  O       51.242    -101.413     221.559
  C       50.662    -101.080     223.930
  O       51.522     -99.931     223.842
  C       49.312    -100.702     224.578
  N       48.847    -101.708     225.522
  C       49.694    -101.971     226.594
  O       50.787    -101.418     226.739
  N       49.265    -102.927     227.479
  C       48.122    -103.667     227.368
  O       47.818    -104.550     228.165
  C       47.276    -103.364     226.201
  C       47.678    -102.421     225.341
  O       45.817    -104.206     221.530
  O       45.077    -101.865     222.270
  H       52.047     -99.909     224.662
  H       45.424    -104.403     222.402
  H       49.852    -103.114     228.275
  H       46.366    -103.934     226.077
  H       47.078    -102.194     224.467
  H       49.406     -99.746     225.110
  H       51.217    -101.854     224.466
  H       49.876    -102.581     222.608
  H       49.416     -99.619     221.962
  H       47.310    -100.402     221.006
  H       48.647    -101.281     220.239
  P       51.123    -102.352     220.264
  C       53.515    -103.388     220.089
  O       52.597    -102.407     219.648
  O       50.288    -101.398     219.280
  O       50.471    -103.664     220.551
  H       50.499    -100.461     219.420
  H       53.013    -104.333     220.322
  H       54.026    -103.020     220.984
  H       54.251    -103.557     219.302
  H       44.304    -102.069     218.327
  H       43.918    -101.370     219.882
  H       43.783    -103.096     219.641

 3  4  5  6  7  8  9  10  11  12  13  23  28  29  30  31  32 0
 6-311+G(2d,p)
 ****
 33  34 0
 6-311+G(2d,p)
 ****
 1  2  14  15  16  17  18  19  20  21  22  24  25  26 0
 3-21G
 ****
 27  35  36  37  38  39  40  41  42  43  44  45 0
 3-21G
 ****


