%nproc=1
%NoSave
%Mem=1900MB
#P OB98/GEN NMR

erre ene a

0 1
  C     -483.482     -28.012     151.064
  O     -483.567     -27.252     152.250
  P     -482.306     -27.259     153.247
  C     -483.423     -28.751     155.076
  O     -482.385     -28.611     154.108
  C     -482.874     -29.497     156.300
  O     -482.437     -30.819     155.938
  C     -481.659     -28.819     156.927
  O     -482.029     -27.709     157.732
  C     -481.046     -29.969     157.720
  O     -481.692     -30.119     159.005
  C     -481.346     -31.180     156.806
  N     -480.177     -31.631     156.064
  C     -479.086     -32.040     156.827
  O     -479.086     -32.007     158.068
  N     -477.984     -32.450     156.135
  C     -477.836     -32.451     154.775
  O     -476.810     -32.776     154.211
  C     -479.011     -31.970     154.014
  C     -480.109     -31.583     154.686
  O     -482.643     -26.112     154.303
  O     -480.993     -27.033     152.569
  H     -481.678     -29.234     159.418
  H     -481.812     -25.656     154.571
  H     -477.195     -32.774     156.677
  H     -478.937     -31.959     152.939
  H     -480.972     -31.234     154.141
  H     -481.721     -32.027     157.410
  H     -479.977     -29.818     157.919
  H     -480.952     -28.519     156.143
  H     -483.682     -29.587     157.042
  H     -484.251     -29.310     154.647
  H     -483.782     -27.754     155.363
  P     -481.225     -26.337     157.508
  C     -479.668     -26.545     159.602
  O     -479.794     -26.574     158.185
  O     -482.018     -25.366     158.506
  O     -481.217     -25.903     156.077
  H     -482.345     -25.842     159.292
  H     -480.553     -26.965     160.093
  H     -479.524     -25.509     159.919
  H     -478.795     -27.132     159.885
  H     -484.390     -27.909     150.508
  H     -483.330     -29.042     151.311
  H     -482.661     -27.662     150.474

 3  4  5  6  7  8  9  10  11  12  13  23  28  29  30  31  32 0
 6-311+G(2d,p)
 ****
 33  34 0
 6-311+G(2d,p)
 ****
 1  2  14  15  16  17  18  19  20  21  22  24  25  26 0
 3-21G
 ****
 27  35  36  37  38  39  40  41  42  43  44  45 0
 3-21G
 ****


