%nproc=1
%NoSave
%Mem=1900MB
#P OB98/GEN NMR

erre ene a

0 1
  C     -334.515       7.919     -74.180
  O     -335.200       7.116     -75.119
  H     -334.200       7.288     -73.344
  H     -335.167       8.707     -73.795
  H     -333.625       8.359     -74.637
  P     -335.867       7.831     -76.392
  C     -338.203       7.305     -75.392
  O     -337.312       8.306     -75.865
  C     -339.641       7.667     -75.750
  O     -340.096       8.806     -74.984
  C     -339.859       8.067     -77.208
  O     -339.827       6.971     -78.105
  C     -341.241       8.695     -77.104
  O     -342.233       7.661     -76.995
  C     -341.117       9.481     -75.774
  N     -340.757      10.885     -75.973
  C     -340.838      11.716     -74.846
  O     -341.196      11.264     -73.760
  N     -340.545      13.054     -74.988
  C     -340.221      13.522     -76.153
  N     -339.988      14.862     -76.247
  C     -340.108      12.683     -77.360
  C     -340.390      11.390     -77.203
  O     -335.879       7.045     -77.663
  O     -335.094       9.228     -76.515
  H     -342.172       7.124     -77.806
  H     -335.463       9.707     -77.295
  H     -339.841      13.126     -78.308
  H     -340.347      10.710     -78.047
  H     -342.048       9.432     -75.203
  H     -341.502       9.311     -77.971
  H     -339.145       8.842     -77.510
  H     -340.278       6.817     -75.467
  H     -340.116      15.413     -75.409
  H     -338.076       7.220     -74.309
  H     -340.006      15.340     -77.145
  H     -337.962       6.341     -75.853
  P     -339.102       7.184     -79.525
  C     -341.293       7.903     -80.737
  O     -339.982       8.255     -80.335
  O     -339.393       5.805     -80.284
  O     -337.644       7.510     -79.464
  H     -338.655       5.175     -80.163
  H     -341.737       8.723     -81.261
  H     -341.881       7.671     -79.873
  H     -341.252       7.049     -81.380

 6  7  8  9  10  11  12  13  14  15  16  26  30  31  32  33  35 0
 6-311+G(2d,p)
 ****
 37  38 0
 6-311+G(2d,p)
 ****
 1  2  3  4  5  17  18  19  20  21  22  23  24  25 0
 3-21G
 ****
 27  28  29  34  36  39  40  41  42  43  44  45  46 0
 3-21G
 ****


