%nproc=1
%NoSave
%Mem=1900MB
#P OB98/GEN NMR

erre ene a

0 1
  C     -291.277    -473.435      96.545
  O     -290.437    -473.066      97.618
  H     -292.318    -473.339      96.862
  H     -291.096    -474.474      96.251
  H     -291.111    -472.772      95.690
  P     -288.855    -473.270      97.472
  C     -288.312    -474.302      99.767
  O     -288.238    -473.142      98.948
  C     -289.044    -473.996     101.078
  O     -288.247    -473.053     101.848
  C     -290.436    -473.382     100.872
  O     -291.311    -473.899     101.880
  C     -290.184    -471.904     101.090
  O     -291.366    -471.221     101.470
  C     -289.071    -471.914     102.145
  N     -288.311    -470.667     102.128
  C     -288.817    -469.612     102.901
  O     -289.853    -469.768     103.555
  N     -288.195    -468.394     102.852
  C     -287.181    -468.219     102.063
  N     -286.628    -466.976     102.041
  C     -286.625    -469.293     101.214
  C     -287.229    -470.474     101.298
  O     -288.177    -472.434      96.435
  O     -288.706    -474.833      97.151
  H     -292.048    -471.343     100.765
  H     -288.720    -474.983      96.183
  H     -285.778    -469.092     100.570
  H     -286.901    -471.320     100.700
  H     -289.490    -472.058     103.150
  H     -289.819    -471.449     100.161
  H     -290.853    -473.588      99.878
  H     -289.105    -474.916     101.667
  H     -287.065    -466.259     102.623
  H     -287.287    -474.625      99.985
  H     -285.865    -466.707     101.436
  H     -288.827    -475.106      99.232
  P     -292.567    -474.816     101.480
  C     -294.314    -473.554     102.855
  O     -293.635    -474.791     102.685
  O     -292.213    -476.182     100.992
  O     -293.300    -473.977     100.326
  H     -293.743    -474.593      99.714
  H     -294.999    -473.632     103.674
  H     -294.852    -473.317     101.961
  H     -293.602    -472.781     103.058

 6  7  8  9  10  11  12  13  14  15  16  26  30  31  32  33  35 0
 6-311+G(2d,p)
 ****
 37  38 0
 6-311+G(2d,p)
 ****
 1  2  3  4  5  17  18  19  20  21  22  23  24  25 0
 3-21G
 ****
 27  28  29  34  36  39  40  41  42  43  44  45  46 0
 3-21G
 ****


