%nproc=1
%NoSave
%Mem=1900MB
#P OB98/GEN NMR

erre ene a

0 1
  C      -86.110     124.405     415.448
  O      -86.844     124.471     414.240
  H      -86.581     125.072     416.178
  H      -85.082     124.740     415.276
  H      -86.112     123.385     415.843
  P      -86.430     123.431     413.087
  C      -85.977     125.351     411.352
  O      -86.709     124.188     411.701
  C      -86.893     126.387     410.693
  O      -87.349     127.315     411.712
  C      -86.208     127.206     409.590
  O      -87.171     127.483     408.569
  C      -85.839     128.505     410.297
  O      -85.673     129.580     409.382
  C      -87.008     128.652     411.286
  N      -86.675     129.514     412.419
  C      -87.402     130.707     412.540
  O      -88.262     130.992     411.700
  N      -87.106     131.558     413.572
  C      -86.133     131.285     414.377
  N      -85.874     132.186     415.364
  C      -85.308     130.062     414.264
  C      -85.641     129.224     413.279
  O      -87.610     122.353     413.176
  O      -85.059     122.858     413.238
  H      -85.018     129.315     408.701
  H      -88.494     122.751     413.258
  H      -84.498     129.882     414.954
  H      -85.095     128.298     413.129
  H      -87.888     129.075     410.776
  H      -84.897     128.377     410.844
  H      -85.342     126.695     409.161
  H      -87.783     125.876     410.307
  H      -86.449     133.023     415.391
  H      -85.167     125.096     410.660
  H      -85.105     132.101     416.013
  H      -85.531     125.758     412.263
  P      -86.704     127.506     407.036
  C      -87.694     129.842     406.505
  O      -87.697     128.448     406.198
  O      -86.417     126.178     406.423
  O      -85.362     128.395     407.094
  H      -84.707     127.984     406.495
  H      -88.397     130.347     405.876
  H      -86.715     130.242     406.339
  H      -87.967     129.982     407.530

 6  7  8  9  10  11  12  13  14  15  16  26  30  31  32  33  35 0
 6-311+G(2d,p)
 ****
 37  38 0
 6-311+G(2d,p)
 ****
 1  2  3  4  5  17  18  19  20  21  22  23  24  25 0
 3-21G
 ****
 27  28  29  34  36  39  40  41  42  43  44  45  46 0
 3-21G
 ****


