%nproc=1
%NoSave
%Mem=1900MB
#P OB98/GEN NMR

erre ene a

0 1
  C     -403.367    -256.479    -146.436
  O     -403.250    -256.488    -147.851
  P     -404.459    -255.863    -148.703
  C     -403.033    -255.068    -150.771
  O     -404.007    -255.963    -150.235
  C     -402.166    -255.798    -151.799
  O     -401.359    -256.796    -151.145
  C     -402.944    -256.539    -152.872
  O     -403.452    -255.661    -153.862
  C     -401.882    -257.520    -153.382
  O     -400.996    -256.863    -154.300
  C     -401.138    -257.874    -152.084
  N     -401.544    -259.160    -151.511
  C     -400.997    -260.296    -152.104
  O     -400.213    -260.252    -153.052
  N     -401.396    -261.496    -151.578
  C     -402.324    -261.669    -150.585
  O     -402.679    -262.771    -150.183
  C     -402.891    -260.435    -150.026
  C     -402.477    -259.256    -150.504
  O     -404.313    -254.316    -148.331
  O     -405.780    -256.477    -148.370
  H     -403.400    -254.083    -148.092
  H     -400.332    -257.530    -154.574
  H     -400.996    -262.333    -151.976
  H     -403.634    -260.534    -149.241
  H     -402.897    -258.336    -150.107
  H     -400.058    -257.906    -152.258
  H     -402.321    -258.378    -153.900
  H     -403.770    -257.096    -152.421
  H     -401.487    -255.062    -152.255
  H     -402.408    -254.698    -149.958
  H     -403.549    -254.220    -151.230
  P     -404.356    -256.323    -155.014
  C     -406.324    -254.596    -154.982
  O     -405.207    -255.129    -155.666
  O     -405.426    -257.137    -154.145
  O     -403.582    -257.156    -155.981
  H     -405.747    -256.638    -153.373
  H     -406.535    -253.601    -155.380
  H     -406.132    -254.512    -153.913
  H     -407.194    -255.237    -155.155
  H     -402.495    -256.923    -146.003
  H     -404.233    -257.037    -146.146
  H     -403.461    -255.470    -146.092

 3  4  5  6  7  8  9  10  11  12  13  24  28  29  30  31  32 0
 6-311+G(2d,p)
 ****
 33  34 0
 6-311+G(2d,p)
 ****
 1  2  14  15  16  17  18  19  20  21  22  23  25  26  27 0
 3-21G
 ****
 35  36  37  38  39  40  41  42  43  44  45 0
 3-21G
 ****


