%nproc=1
%NoSave
%Mem=1900MB
#P OB98/GEN NMR

erre ene a

0 1
  C       10.812    -122.857    -210.684
  O       10.068    -122.028    -211.554
  H       11.710    -122.319    -210.371
  H       11.113    -123.767    -211.208
  H       10.226    -123.113    -209.798
  P        8.608    -122.549    -211.970
  C        8.716    -122.847    -214.546
  O        8.340    -122.013    -213.460
  C        8.017    -122.393    -215.825
  O        6.610    -122.718    -215.770
  C        8.097    -120.893    -216.084
  O        9.327    -120.527    -216.696
  C        6.932    -120.713    -217.043
  O        7.309    -121.168    -218.358
  C        5.879    -121.649    -216.437
  N        1.174    -119.957    -215.607
  C        1.719    -120.551    -216.731
  N        0.895    -120.706    -217.789
  N        2.962    -120.950    -216.814
  C        3.673    -120.720    -215.683
  C        3.244    -120.145    -214.508
  C        1.867    -119.714    -214.427
  O        1.327    -119.206    -213.449
  N        4.250    -120.092    -213.581
  C        5.291    -120.615    -214.198
  N        4.994    -121.007    -215.480
  O        7.625    -121.651    -211.075
  O        8.360    -124.003    -211.753
  H        8.177    -120.771    -218.554
  H        6.858    -122.194    -210.809
  H        0.214    -119.658    -215.600
  H        6.274    -120.734    -213.764
  H        5.244    -122.112    -217.201
  H        6.624    -119.671    -217.140
  H       -0.058    -120.376    -217.808
  H        7.911    -120.315    -215.171
  H        1.262    -121.167    -218.611
  H        8.451    -122.953    -216.663
  H        8.429    -123.879    -214.324
  H        9.802    -122.799    -214.673
  P       10.223    -119.415    -215.961
  C       10.728    -118.327    -218.265
  O       11.257    -118.891    -217.070
  O       11.141    -120.283    -214.979
  O        9.453    -118.367    -215.231
  H       11.454    -119.729    -214.237
  H       11.532    -118.025    -218.903
  H       10.127    -117.476    -218.022
  H       10.127    -119.056    -218.768

 6  7  8  9  10  11  12  13  14  15  26  29  33  34 0
 6-311+G(2d,p)
 ****
 36  38  39  40  41 0
 6-311+G(2d,p)
 ****
 1  2  3  4  5  16  17  18  19  20  21  22  23  24  25 0
 3-21G
 ****
 27  28  30  31  32  35  37  42  43  44  45  46  47 0
 3-21G
 ****
 48  49 0
 3-21G
 ****


