%nproc=1
%NoSave
%Mem=1900MB
#P OB98/GEN NMR

erre ene a

0 1
  C      217.110    -295.019     -92.196
  O      217.092    -296.285     -91.565
  P      218.018    -296.557     -90.289
  C      216.941    -298.901     -89.931
  O      218.124    -298.149     -90.115
  C      217.249    -300.406     -89.883
  O      217.686    -300.812     -91.202
  C      218.375    -300.801     -88.933
  O      218.278    -302.201     -88.669
  C      219.605    -300.528     -89.777
  O      220.750    -301.226     -89.303
  C      219.128    -300.920     -91.199
  N      219.712    -300.043     -92.230
  C      220.698    -300.593     -93.039
  O      221.033    -301.775     -92.978
  N      221.352    -299.720     -93.863
  C      221.141    -298.372     -93.916
  O      221.924    -297.572     -94.416
  C      219.934    -297.892     -93.218
  C      219.298    -298.732     -92.396
  O      217.089    -296.099     -89.068
  O      219.321    -295.835     -90.293
  H      220.566    -302.186     -89.415
  H      217.305    -295.185     -88.807
  H      222.160    -300.091     -94.345
  H      219.644    -296.861     -93.351
  H      218.438    -298.393     -91.831
  H      219.402    -301.955     -91.443
  H      219.830    -299.455     -89.741
  H      218.393    -300.238     -87.995
  H      216.330    -300.956     -89.646
  H      216.242    -298.678     -90.740
  H      216.447    -298.606     -89.000
  P      218.992    -302.766     -87.349
  C      217.081    -304.433     -86.947
  O      218.469    -304.269     -87.163
  O      218.908    -301.899     -86.137
  O      220.513    -302.977     -87.824
  H      221.093    -303.034     -87.046
  H      216.782    -305.408     -87.340
  H      216.502    -303.654     -87.449
  H      216.877    -304.405     -85.873
  H      216.433    -295.024     -93.024
  H      218.099    -294.809     -92.545
  H      216.812    -294.267     -91.496

 3  4  5  6  7  8  9  10  11  12  13  23  28  29  30  31  32 0
 6-311+G(2d,p)
 ****
 33  34 0
 6-311+G(2d,p)
 ****
 1  2  14  15  16  17  18  19  20  21  22  24  25  26  27 0
 3-21G
 ****
 35  36  37  38  39  40  41  42  43  44  45 0
 3-21G
 ****


