%nproc=1
%NoSave
%Mem=1900MB
#P OB98/GEN NMR

erre ene a

0 1
  C      -69.512     -39.169     -75.665
  O      -68.302     -39.166     -76.400
  P      -67.829     -40.488     -77.170
  C      -66.594     -41.304     -75.029
  O      -67.520     -41.595     -76.054
  C      -65.701     -42.515     -74.729
  O      -66.508     -43.500     -74.037
  C      -65.144     -43.222     -75.960
  O      -64.035     -44.029     -75.557
  C      -66.301     -44.111     -76.358
  O      -65.890     -45.190     -77.192
  C      -66.897     -44.521     -74.987
  N      -68.365     -44.632     -75.046
  C      -68.909     -45.186     -76.202
  O      -68.219     -45.643     -77.113
  N      -70.271     -45.121     -76.313
  C      -71.107     -44.522     -75.417
  O      -72.262     -44.201     -75.670
  C      -70.505     -44.175     -74.121
  C      -69.175     -44.220     -74.004
  O      -66.381     -40.081     -77.716
  O      -68.731     -40.933     -78.270
  H      -65.538     -44.791     -78.022
  H      -66.442     -39.781     -78.641
  H      -70.651     -45.391     -77.212
  H      -71.159     -43.837     -73.329
  H      -68.698     -43.919     -73.076
  H      -66.498     -45.485     -74.650
  H      -67.032     -43.517     -76.922
  H      -64.849     -42.548     -76.769
  H      -64.890     -42.211     -74.057
  H      -67.136     -40.991     -74.132
  H      -65.961     -40.458     -75.319
  P      -62.832     -44.224     -76.599
  C      -64.034     -46.144     -77.809
  O      -63.482     -44.848     -77.926
  O      -61.626     -44.932     -76.080
  O      -62.494     -42.721     -77.046
  H      -61.603     -42.688     -77.440
  H      -64.850     -46.247     -78.529
  H      -64.424     -46.325     -76.804
  H      -63.264     -46.886     -78.038
  H      -69.663     -38.207     -75.222
  H      -69.460     -39.911     -74.896
  H      -70.327     -39.391     -76.321

 3  4  5  6  7  8  9  10  11  12  13  23  28  29  30  31  32 0
 6-311+G(2d,p)
 ****
 33  34 0
 6-311+G(2d,p)
 ****
 1  2  14  15  16  17  18  19  20  21  22  24  25  26  27 0
 3-21G
 ****
 35  36  37  38  39  40  41  42  43  44  45 0
 3-21G
 ****


