%nproc=1
%NoSave
%Mem=1900MB
#P OB98/GEN NMR

erre ene a

0 1
  C      298.451     157.477    -393.920
  O      298.273     158.873    -393.792
  H      297.884     157.130    -394.788
  H      298.080     156.958    -393.032
  H      299.509     157.241    -394.076
  P      298.944     159.618    -392.542
  C      300.936     160.623    -393.853
  O      300.512     159.701    -392.852
  C      302.191     161.367    -393.399
  O      301.891     162.221    -392.279
  C      303.324     160.456    -392.939
  O      303.960     159.853    -394.047
  C      304.170     161.444    -392.155
  O      304.960     162.259    -393.034
  C      303.079     162.291    -391.456
  N      302.790     161.864    -390.090
  C      303.534     162.488    -389.081
  O      304.384     163.334    -389.366
  N      303.305     162.118    -387.779
  C      302.390     161.243    -387.500
  N      302.204     160.928    -386.193
  C      301.563     160.588    -388.532
  C      301.821     160.935    -389.792
  O      298.607     159.068    -391.189
  O      298.463     161.136    -392.698
  H      305.269     163.013    -392.494
  H      297.657     161.295    -392.170
  H      300.803     159.875    -388.257
  H      301.258     160.500    -390.613
  H      303.378     163.348    -391.424
  H      304.863     160.947    -391.473
  H      302.940     159.701    -392.242
  H      302.516     162.011    -394.228
  H      302.787     161.417    -385.517
  H      300.113     161.331    -394.006
  H      301.423     160.389    -385.851
  H      301.125     160.105    -394.800
  P      304.968     158.619    -393.862
  C      303.139     156.823    -394.074
  O      304.092     157.435    -393.219
  O      306.231     158.933    -393.138
  O      305.200     158.098    -395.359
  H      305.833     158.694    -395.836
  H      302.621     156.055    -393.539
  H      303.639     156.394    -394.917
  H      302.438     157.558    -394.411

 6  7  8  9  10  11  12  13  14  15  16  26  30  31  32  33  35 0
 6-311+G(2d,p)
 ****
 37  38 0
 6-311+G(2d,p)
 ****
 1  2  3  4  5  17  18  19  20  21  22  23  24  25 0
 3-21G
 ****
 27  28  29  34  36  39  40  41  42  43  44  45  46 0
 3-21G
 ****


