%nproc=1
%NoSave
%Mem=1900MB
#P OB98/GEN NMR

erre ene a

0 1
  C     -295.459       0.797    -530.048
  O     -295.766      -0.553    -529.769
  H     -294.446       1.009    -529.694
  H     -296.158       1.453    -529.523
  H     -295.503       0.987    -531.126
  P     -297.110      -1.151    -530.409
  C     -295.913      -3.018    -531.765
  O     -296.690      -1.832    -531.800
  C     -295.545      -3.445    -533.185
  O     -295.062      -2.278    -533.910
  C     -294.443      -4.516    -533.248
  O     -294.731      -5.393    -534.345
  C     -293.198      -3.706    -533.572
  O     -292.165      -4.463    -534.184
  C     -293.785      -2.627    -534.486
  N     -292.921      -1.455    -534.597
  C     -291.667      -1.638    -535.179
  O     -291.273      -2.688    -535.679
  N     -290.844      -0.539    -535.169
  C     -291.141       0.683    -534.631
  O     -290.356       1.624    -534.637
  C     -292.472       0.810    -534.026
  C     -293.287      -0.248    -534.037
  O     -297.906       0.160    -530.859
  O     -297.914      -2.029    -529.506
  H     -298.478       0.479    -530.135
  H     -291.770      -5.032    -533.494
  H     -289.934      -0.652    -535.582
  H     -292.738       1.760    -533.582
  H     -294.271      -0.190    -533.579
  H     -293.980      -3.037    -535.486
  H     -292.796      -3.264    -532.652
  H     -294.331      -5.099    -532.330
  H     -296.453      -3.788    -533.696
  H     -296.494      -3.815    -531.290
  H     -295.009      -2.840    -531.171
  P     -295.816      -6.549    -534.098
  C     -297.451      -5.335    -535.745
  O     -297.236      -5.891    -534.457
  O     -295.812      -6.641    -532.501
  O     -295.486      -7.821    -534.809
  H     -295.677      -5.782    -532.072
  H     -298.446      -4.945    -535.804
  H     -297.321      -6.094    -536.488
  H     -296.748      -4.546    -535.915

 6  7  8  9  10  11  12  13  14  15  16  27  31  32  33  34  35 0
 6-311+G(2d,p)
 ****
 36  37 0
 6-311+G(2d,p)
 ****
 1  2  3  4  5  17  18  19  20  21  22  23  24  25 0
 3-21G
 ****
 26  28  29  30  38  39  40  41  42  43  44  45 0
 3-21G
 ****


