%nproc=1
%NoSave
%Mem=1900MB
#P OB98/GEN NMR

erre ene a

0 1
  C       67.618     -35.959     -53.102
  O       66.862     -37.131     -53.330
  H       68.567     -36.209     -52.621
  H       67.827     -35.481     -54.064
  H       67.055     -35.261     -52.476
  P       66.478     -38.005     -52.040
  C       68.622     -39.340     -52.665
  O       67.830     -38.769     -51.633
  C       69.904     -39.905     -52.063
  O       70.708     -38.834     -51.517
  C       69.667     -40.874     -50.912
  O       69.365     -42.185     -51.357
  C       71.018     -40.825     -50.219
  O       71.973     -41.606     -50.957
  C       71.361     -39.330     -50.317
  N       71.915     -38.548     -45.288
  C       72.564     -39.360     -46.152
  N       72.371     -39.493     -47.479
  C       71.400     -38.671     -47.904
  C       70.656     -37.783     -47.144
  C       70.941     -37.740     -45.769
  N       70.261     -36.938     -44.881
  N       69.733     -37.123     -47.932
  C       69.933     -37.592     -49.147
  N       70.906     -38.553     -49.176
  O       65.566     -39.179     -52.633
  O       65.825     -37.265     -50.921
  H       72.831     -41.513     -50.502
  H       65.095     -39.640     -51.913
  H       73.337     -39.986     -45.717
  H       69.393     -37.278     -50.032
  H       72.437     -39.151     -50.424
  H       70.987     -41.230     -49.204
  H       68.900     -40.502     -50.224
  H       70.482     -40.379     -52.866
  H       68.868     -38.564     -53.397
  H       70.436     -37.087     -43.899
  H       69.441     -36.446     -45.201
  H       68.056     -40.135     -53.160
  P       68.392     -43.074     -50.438
  C       70.422     -43.845     -49.011
  O       69.133     -43.242     -49.025
  O       68.513     -44.528     -51.093
  O       66.980     -42.593     -50.381
  H       67.676     -45.021     -51.002
  H       70.785     -43.887     -48.005
  H       71.094     -43.265     -49.608
  H       70.356     -44.836     -49.409

 6  7  8  9  10  11  12  13  14  15  25  28  32  33  34  35 0
 6-311+G(2d,p)
 ****
 36  39  40 0
 6-311+G(2d,p)
 ****
 1  2  3  4  5  16  17  18  19  20  21  22  23  24 0
 3-21G
 ****
 26  27  29  30  31  37  38  41  42  43  44  45  46  47 0
 3-21G
 ****
 48 0
 3-21G
 ****


