%nproc=1
%NoSave
%Mem=1900MB
#P OB98/GEN NMR

erre ene a

0 1
  C      701.770     259.437       5.192
  O      701.171     258.248       4.716
  H      701.735     260.190       4.397
  H      702.811     259.245       5.449
  H      701.230     259.821       6.064
  P      700.830     257.118       5.798
  C      702.851     255.593       5.253
  O      701.441     255.737       5.249
  C      703.262     254.345       4.468
  O      702.387     253.243       4.843
  C      703.169     254.510       2.939
  O      704.266     253.826       2.338
  C      701.868     253.812       2.588
  O      701.851     253.344       1.236
  C      701.834     252.706       3.629
  N      697.790     250.702       1.378
  C      699.044     250.982       0.874
  N      699.258     250.685      -0.423
  N      700.018     251.499       1.587
  C      699.669     251.702       2.882
  C      698.464     251.479       3.501
  C      697.392     250.927       2.689
  O      696.251     250.686       3.078
  N      698.499     251.850       4.816
  C      699.729     252.300       4.999
  N      700.480     252.226       3.851
  O      699.252     256.920       5.630
  O      701.191     257.453       7.207
  H      701.793     254.137       0.653
  H      698.797     257.190       6.452
  H      697.078     250.312       0.781
  H      700.120     252.696       5.932
  H      702.439     251.829       3.339
  H      701.032     254.501       2.725
  H      698.573     250.240      -1.021
  H      703.177     255.556       2.627
  H      700.182     250.843      -0.808
  H      704.276     254.061       4.774
  H      703.201     255.504       6.281
  H      703.308     256.482       4.799
  P      705.201     254.676       1.344
  C      705.478     252.729      -0.340
  O      706.127     253.651       0.516
  O      706.226     255.404       2.338
  O      704.450     255.669       0.518
  H      706.023     256.354       2.392
  H      706.209     252.115      -0.823
  H      704.916     253.262      -1.078
  H      704.818     252.113       0.234

 6  7  8  9  10  11  12  13  14  15  26  29  33  34 0
 6-311+G(2d,p)
 ****
 36  38  39  40  41 0
 6-311+G(2d,p)
 ****
 1  2  3  4  5  16  17  18  19  20  21  22  23  24  25 0
 3-21G
 ****
 27  28  30  31  32  35  37  42  43  44  45  46  47 0
 3-21G
 ****
 48  49 0
 3-21G
 ****


