%nproc=1
%NoSave
%Mem=1900MB
#P OB98/GEN NMR

erre ene a

0 1
  C       87.659     251.227      10.390
  O       86.771     250.813       9.346
  P       85.579     251.810       8.947
  C       85.180     250.980       6.520
  O       84.663     251.099       7.837
  C       86.048     249.722       6.371
  O       85.326     248.540       6.815
  C       86.490     249.453       4.929
  O       87.759     248.791       4.963
  C       85.443     248.471       4.439
  O       85.884     247.758       3.284
  C       85.248     247.630       5.698
  N       82.744     243.700       3.768
  C       84.025     244.151       3.516
  N       84.758     243.427       2.643
  N       84.541     245.218       4.069
  C       83.702     245.820       4.947
  C       82.412     245.474       5.277
  C       81.846     244.307       4.639
  O       80.713     243.869       4.814
  N       81.878     246.348       6.191
  C       82.843     247.223       6.406
  N       83.979     246.925       5.702
  O       86.335     252.958       8.125
  O       84.847     252.376      10.118
  H       85.193     247.096       3.068
  H       86.368     253.775       8.655
  H       82.393     242.877       3.307
  H       82.771     248.084       7.053
  H       86.033     246.872       5.819
  H       84.521     249.008       4.180
  H       84.439     242.568       2.222
  H       86.564     250.344       4.296
  H       85.714     243.712       2.472
  H       86.929     249.827       7.013
  H       85.774     251.863       6.268
  H       84.345     250.976       5.811
  P       89.001     249.568       4.317
  C       90.560     248.899       6.282
  O       90.318     248.859       4.889
  O       88.987     250.986       5.059
  O       88.944     249.712       2.831
  H       89.416     251.664       4.505
  H       90.314     247.925       6.715
  H       89.972     249.676       6.780
  H       91.621     249.102       6.448
  H       88.399     250.471      10.549
  H       87.103     251.378      11.292
  H       88.138     252.142      10.109

 3  4  5  6  7  8  9  10  11  12  23  26  30  31 0
 6-311+G(2d,p)
 ****
 33  35  36  37  38 0
 6-311+G(2d,p)
 ****
 1  2  13  14  15  16  17  18  19  20  21  22  24  25 0
 3-21G
 ****
 27  28  29  32  34  39  40  41  42  43  44  45  46  47  48  49 0
 3-21G
 ****


