%nproc=1
%NoSave
%Mem=1900MB
#P OB98/GEN NMR

erre ene a

0 1
  C      887.061      36.113      50.192
  O      886.521      37.176      49.432
  H      888.009      35.803      49.744
  H      886.373      35.263      50.185
  H      887.246      36.433      51.224
  P      885.252      37.944      50.035
  C      884.833      39.400      52.146
  O      885.785      38.789      51.294
  C      885.546      40.129      53.288
  O      886.469      39.198      53.926
  C      886.358      41.351      52.841
  O      886.264      42.351      53.858
  C      887.779      40.819      52.794
  O      888.773      41.828      52.915
  C      887.761      39.840      53.971
  N      888.838      38.858      53.899
  C      889.945      39.062      54.722
  O      890.041      39.959      55.558
  N      890.980      38.175      54.553
  C      891.022      37.150      53.652
  O      891.989      36.405      53.534
  C      889.831      36.992      52.807
  C      888.813      37.837      52.968
  O      884.405      36.765      50.711
  O      884.452      38.733      49.050
  H      883.778      36.384      50.069
  H      888.859      42.041      53.867
  H      891.788      38.309      55.138
  H      889.834      36.193      52.071
  H      887.925      37.760      52.344
  H      887.820      40.388      54.923
  H      887.947      40.288      51.846
  H      886.042      41.771      51.881
  H      884.801      40.412      54.046
  H      884.174      38.636      52.568
  H      884.226      40.107      51.565
  P      885.135      43.483      53.684
  C      882.584      43.408      54.274
  O      883.910      43.002      54.594
  O      884.654      43.209      52.184
  O      885.648      44.862      53.947
  H      884.664      42.261      51.948
  H      881.902      42.994      54.987
  H      882.331      43.060      53.294
  H      882.522      44.476      54.300

 6  7  8  9  10  11  12  13  14  15  16  27  31  32  33  34  35 0
 6-311+G(2d,p)
 ****
 36  37 0
 6-311+G(2d,p)
 ****
 1  2  3  4  5  17  18  19  20  21  22  23  24  25 0
 3-21G
 ****
 26  28  29  30  38  39  40  41  42  43  44  45 0
 3-21G
 ****


