%nproc=1
%NoSave
%Mem=1900MB
#P OB98/GEN NMR

erre ene a

0 1
  C     -558.757    -577.055    -355.643
  O     -558.465    -577.498    -354.315
  P     -557.574    -578.810    -354.113
  C     -555.464    -578.461    -352.671
  O     -556.857    -578.727    -352.667
  C     -555.185    -576.993    -353.002
  O     -555.841    -576.122    -352.029
  C     -553.686    -576.655    -352.968
  O     -553.380    -575.641    -353.938
  C     -553.506    -576.047    -351.589
  O     -552.328    -575.247    -351.521
  C     -554.823    -575.283    -351.446
  N     -553.647    -572.404    -347.375
  C     -553.184    -572.404    -348.642
  N     -553.554    -573.181    -349.676
  C     -554.532    -574.024    -349.311
  C     -555.120    -574.137    -348.051
  C     -554.635    -573.281    -347.049
  N     -555.092    -573.302    -345.753
  N     -556.089    -575.117    -348.050
  C     -556.051    -575.628    -349.264
  N     -555.154    -574.979    -350.072
  O     -556.670    -579.163    -355.243
  O     -558.677    -579.952    -353.876
  H     -551.564    -575.850    -351.526
  H     -558.408    -580.765    -354.365
  H     -552.396    -571.681    -348.848
  H     -556.643    -576.467    -349.609
  H     -554.808    -574.334    -352.002
  H     -553.429    -576.845    -350.843
  H     -553.023    -577.509    -353.132
  H     -555.615    -576.764    -353.983
  H     -554.967    -579.112    -353.397
  H     -554.607    -572.730    -345.078
  H     -555.714    -574.049    -345.468
  H     -555.048    -578.740    -351.696
  P     -552.661    -576.156    -355.289
  C     -553.795    -574.535    -356.998
  O     -552.634    -574.892    -356.277
  O     -553.244    -577.414    -355.834
  O     -551.133    -576.305    -354.813
  H     -550.774    -575.528    -354.351
  H     -553.618    -573.583    -357.503
  H     -554.652    -574.417    -356.325
  H     -554.027    -575.290    -357.751
  H     -559.359    -576.171    -355.600
  H     -559.288    -577.823    -356.166
  H     -557.843    -576.840    -356.156

 3  4  5  6  7  8  9  10  11  12  22  25  29  30  31  32 0
 6-311+G(2d,p)
 ****
 33  36  37 0
 6-311+G(2d,p)
 ****
 1  2  13  14  15  16  17  18  19  20  21  23  24  26 0
 3-21G
 ****
 27  28  34  35  38  39  40  41  42  43  44  45  46  47  48 0
 3-21G
 ****


