%nproc=1
%NoSave
%Mem=1900MB
#P OB98/GEN NMR

erre ene a

0 1
  C       71.000     -72.532     -89.047
  O       69.689     -72.452     -88.525
  H       71.006     -72.172     -90.078
  H       71.656     -71.894     -88.449
  H       71.374     -73.558     -89.007
  P       68.623     -73.528     -89.052
  C       66.276     -74.241     -88.205
  O       67.243     -73.206     -88.294
  C       65.357     -74.013     -87.007
  O       66.136     -74.181     -85.788
  C       64.710     -72.619     -86.963
  O       63.367     -72.758     -86.489
  C       65.531     -71.888     -85.917
  O       64.813     -70.828     -85.296
  C       65.885     -73.028     -84.966
  N       67.391     -70.549     -80.790
  C       66.174     -70.959     -81.206
  N       65.866     -71.666     -82.312
  C       66.980     -72.006     -82.984
  C       68.287     -71.668     -82.680
  C       68.475     -70.883     -81.529
  N       69.702     -70.403     -81.133
  N       69.147     -72.156     -83.645
  C       68.369     -72.754     -84.526
  N       67.052     -72.687     -84.170
  O       69.127     -74.880     -88.355
  O       68.526     -73.667     -90.534
  H       63.922     -71.148     -85.055
  H       69.793     -75.311     -88.921
  H       65.336     -70.674     -80.575
  H       68.701     -73.219     -85.443
  H       65.071     -73.267     -84.272
  H       66.430     -71.470     -86.383
  H       64.709     -72.102     -87.930
  H       64.588     -74.795     -87.005
  H       66.790     -75.200     -88.080
  H       69.725     -69.760     -80.357
  H       70.501     -70.551     -81.732
  H       65.693     -74.273     -89.131
  P       62.195     -72.774     -87.582
  C       59.954     -74.094     -87.698
  O       60.868     -73.352     -86.897
  O       62.638     -73.946     -88.578
  O       62.023     -71.476     -88.302
  H       62.354     -73.743     -89.486
  H       59.126     -74.408     -87.097
  H       60.449     -74.953     -88.100
  H       59.600     -73.479     -88.499

 6  7  8  9  10  11  12  13  14  15  25  28  32  33  34  35 0
 6-311+G(2d,p)
 ****
 36  39  40 0
 6-311+G(2d,p)
 ****
 1  2  3  4  5  16  17  18  19  20  21  22  23  24 0
 3-21G
 ****
 26  27  29  30  31  37  38  41  42  43  44  45  46  47 0
 3-21G
 ****
 48 0
 3-21G
 ****


