%nproc=1
%NoSave
%Mem=1900MB
#P OB98/GEN NMR

erre ene a

0 1
  C      389.836    -281.100      58.220
  O      388.571    -281.663      57.927
  H      389.682    -280.151      58.739
  H      390.402    -280.913      57.306
  H      390.398    -281.770      58.876
  P      388.517    -282.918      56.927
  C      389.135    -284.969      58.363
  O      389.613    -283.955      57.483
  C      388.965    -286.299      57.631
  O      387.830    -286.254      56.743
  C      390.141    -286.677      56.744
  O      391.337    -286.960      57.433
  C      389.525    -287.741      55.847
  O      389.505    -289.026      56.462
  C      388.081    -287.206      55.684
  N      387.850    -286.621      54.366
  C      387.692    -287.522      53.321
  O      387.758    -288.740      53.454
  N      387.480    -286.967      52.086
  C      387.465    -285.637      51.800
  O      387.294    -285.201      50.667
  C      387.679    -284.733      52.944
  C      387.857    -285.256      54.155
  O      388.674    -282.593      55.470
  O      387.131    -283.634      57.281
  H      390.435    -289.296      56.589
  H      386.866    -284.270      56.574
  H      387.349    -287.603      51.314
  H      387.683    -283.669      52.750
  H      388.012    -284.612      55.015
  H      387.358    -288.021      55.824
  H      390.063    -287.841      54.900
  H      390.366    -285.820      56.095
  H      388.767    -287.075      58.380
  H      388.162    -284.644      58.747
  H      389.827    -285.083      59.200
  P      392.786    -286.637      56.861
  C      392.884    -284.090      57.447
  O      392.836    -285.091      56.437
  O      393.379    -287.642      55.926
  O      393.676    -286.644      58.212
  H      394.558    -286.993      57.971
  H      392.913    -283.123      56.990
  H      393.761    -284.228      58.045
  H      392.015    -284.166      58.066

 6  7  8  9  10  11  12  13  14  15  16  26  31  32  33  34  35 0
 6-311+G(2d,p)
 ****
 36  37 0
 6-311+G(2d,p)
 ****
 1  2  3  4  5  17  18  19  20  21  22  23  24  25 0
 3-21G
 ****
 27  28  29  30  38  39  40  41  42  43  44  45 0
 3-21G
 ****


