%nproc=1
%NoSave
%Mem=1900MB
#P OB98/GEN NMR

erre ene a

0 1
  C     -127.005     135.985    -685.924
  O     -126.895     134.708    -685.317
  P     -125.554     134.395    -684.499
  C     -125.890     131.942    -685.309
  O     -125.581     132.814    -684.218
  C     -125.628     130.487    -684.920
  O     -124.254     130.342    -684.532
  C     -126.449     129.985    -683.748
  O     -127.772     129.681    -684.157
  C     -125.645     128.771    -683.307
  O     -126.034     127.602    -684.051
  C     -124.192     129.193    -683.650
  N     -123.397     129.477    -682.460
  C     -122.934     128.346    -681.757
  O     -123.230     127.208    -682.143
  N     -122.181     128.548    -680.623
  C     -121.931     129.749    -680.219
  N     -121.181     129.890    -679.090
  C     -122.415     130.972    -680.917
  C     -123.137     130.744    -682.021
  O     -125.850     135.028    -683.058
  O     -124.304     134.934    -685.114
  H     -126.989     127.458    -683.833
  H     -125.027     135.275    -682.600
  H     -122.168     131.940    -680.543
  H     -123.531     131.583    -682.589
  H     -123.687     128.386    -684.211
  H     -125.798     128.546    -682.246
  H     -126.457     130.743    -682.944
  H     -125.792     129.857    -685.818
  H     -120.871     129.042    -678.620
  H     -125.280     132.200    -686.179
  H     -120.923     130.788    -678.707
  H     -126.954     132.080    -685.577
  P     -128.984     130.190    -683.215
  C     -129.776     128.171    -681.861
  O     -129.919     128.910    -683.049
  O     -129.825     131.116    -684.212
  O     -128.602     130.923    -681.974
  H     -130.540     131.567    -683.730
  H     -130.577     127.427    -681.800
  H     -129.836     128.822    -680.987
  H     -128.806     127.647    -681.869
  H     -127.943     136.058    -686.433
  H     -126.207     136.117    -686.625
  H     -126.947     136.744    -685.172

 3  4  5  6  7  8  9  10  11  12  13  21  23  27  28  29  30  32 0
 6-311+G(2d,p)
 ****
 34  35 0
 6-311+G(2d,p)
 ****
 1  2  14  15  16  17  18  19  20  22  24  25  26 0
 3-21G
 ****
 31  33  36  37  38  39  40  41  42  43  44  45  46 0
 3-21G
 ****


