%nproc=1
%NoSave
%Mem=1900MB
#P OB98/GEN NMR

erre ene a

0 1
  C      -73.714    -246.487    -474.475
  O      -74.250    -247.771    -474.727
  H      -74.373    -245.930    -473.804
  H      -72.736    -246.599    -473.999
  H      -73.587    -245.938    -475.412
  P      -75.700    -247.812    -475.413
  C      -76.869    -248.119    -473.122
  O      -76.752    -247.329    -474.297
  C      -77.959    -247.555    -472.217
  O      -77.547    -246.230    -471.781
  C      -79.336    -247.427    -472.890
  O      -80.354    -248.017    -472.076
  C      -79.576    -245.929    -472.961
  O      -80.947    -245.578    -472.801
  C      -78.711    -245.396    -471.825
  N      -80.566    -240.665    -472.282
  C      -81.091    -241.781    -471.728
  N      -80.504    -242.986    -471.553
  C      -79.233    -242.967    -471.987
  C      -78.552    -241.894    -472.553
  C      -79.284    -240.705    -472.714
  N      -78.769    -239.589    -473.332
  N      -77.259    -242.258    -472.883
  C      -77.175    -243.534    -472.562
  N      -78.350    -244.008    -472.032
  O      -75.994    -249.382    -475.554
  O      -75.785    -247.117    -476.730
  H      -81.426    -245.921    -473.576
  H      -76.101    -249.598    -476.501
  H      -82.121    -241.698    -471.389
  H      -76.313    -244.170    -472.735
  H      -79.218    -245.479    -470.854
  H      -79.234    -245.556    -473.935
  H      -79.361    -247.881    -473.887
  H      -78.030    -248.183    -471.317
  H      -75.915    -248.116    -472.580
  H      -79.392    -238.818    -473.510
  H      -77.846    -239.650    -473.754
  H      -77.108    -249.151    -473.413
  P      -80.656    -249.578    -472.327
  C      -82.470    -249.379    -474.180
  O      -81.134    -249.752    -473.851
  O      -81.979    -249.837    -471.465
  O      -79.538    -250.480    -471.903
  H      -81.824    -250.563    -470.829
  H      -82.642    -249.550    -475.222
  H      -82.615    -248.342    -473.960
  H      -83.156    -249.965    -473.605

 6  7  8  9  10  11  12  13  14  15  25  28  32  33  34  35 0
 6-311+G(2d,p)
 ****
 36  39  40 0
 6-311+G(2d,p)
 ****
 1  2  3  4  5  16  17  18  19  20  21  22  23  24 0
 3-21G
 ****
 26  27  29  30  31  37  38  41  42  43  44  45  46  47  48 0
 3-21G
 ****


