%nproc=1
%NoSave
%Mem=1900MB
#P OB98/GEN NMR

erre ene a

0 1
  C     -242.051    -181.835    -450.601
  O     -241.874    -183.194    -450.243
  P     -241.405    -184.212    -451.388
  C     -239.037    -184.240    -450.295
  O     -239.807    -184.119    -451.482
  C     -238.322    -185.593    -450.280
  O     -239.284    -186.666    -450.140
  C     -237.557    -185.893    -451.561
  O     -236.313    -185.212    -451.594
  C     -237.415    -187.409    -451.489
  O     -236.299    -187.783    -450.665
  C     -238.745    -187.820    -450.822
  N     -239.699    -188.376    -451.772
  C     -239.507    -189.714    -452.116
  O     -238.581    -190.391    -451.671
  N     -240.393    -190.234    -453.018
  C     -241.396    -189.553    -453.644
  O     -242.123    -190.057    -454.490
  C     -241.535    -188.135    -453.264
  C     -240.692    -187.622    -452.369
  O     -241.907    -183.523    -452.743
  O     -241.933    -185.600    -451.243
  H     -236.360    -187.243    -449.853
  H     -242.188    -184.210    -453.380
  H     -240.286    -191.207    -453.263
  H     -242.318    -187.562    -453.743
  H     -240.768    -186.578    -452.084
  H     -238.560    -188.568    -450.042
  H     -237.252    -187.855    -452.471
  H     -238.170    -185.632    -452.434
  H     -237.650    -185.622    -449.413
  H     -239.695    -184.158    -449.426
  H     -238.310    -183.420    -450.254
  P     -235.649    -184.985    -453.039
  C     -237.743    -183.662    -453.867
  O     -236.884    -184.767    -454.034
  O     -235.111    -186.457    -453.353
  O     -234.600    -183.923    -453.037
  H     -235.677    -187.146    -452.971
  H     -237.198    -182.780    -453.517
  H     -238.524    -183.916    -453.146
  H     -238.212    -183.428    -454.829
  H     -242.363    -181.278    -449.742
  H     -242.797    -181.762    -451.364
  H     -241.127    -181.439    -450.967

 3  4  5  6  7  8  9  10  11  12  13  23  28  29  30  31  32 0
 6-311+G(2d,p)
 ****
 33  34 0
 6-311+G(2d,p)
 ****
 1  2  14  15  16  17  18  19  20  21  22  24  25  26 0
 3-21G
 ****
 27  35  36  37  38  39  40  41  42  43  44  45 0
 3-21G
 ****


