%nproc=1
%NoSave
%Mem=1900MB
#P OB98/GEN NMR

erre ene a

0 1
  C      -79.907    -248.243    -240.193
  O      -78.803    -247.600    -239.592
  H      -80.530    -247.487    -240.680
  H      -80.508    -248.754    -239.436
  H      -79.575    -248.960    -240.949
  P      -77.656    -248.498    -238.920
  C      -77.470    -250.019    -236.849
  O      -78.245    -249.040    -237.531
  C      -78.215    -250.496    -235.604
  O      -79.460    -251.130    -235.976
  C      -77.450    -251.531    -234.783
  O      -76.415    -250.920    -234.042
  C      -78.581    -252.122    -233.957
  O      -78.912    -251.268    -232.849
  C      -79.736    -252.148    -234.985
  N      -79.910    -253.461    -235.609
  C      -80.356    -254.482    -234.778
  O      -80.593    -254.323    -233.581
  N      -80.476    -255.717    -235.362
  C      -80.115    -256.033    -236.641
  O      -80.032    -257.187    -237.054
  C      -79.726    -254.900    -237.492
  C      -79.626    -253.686    -236.944
  O      -76.306    -247.868    -238.833
  O      -77.630    -249.817    -239.833
  H      -76.876    -249.763    -240.455
  H      -79.118    -250.391    -233.229
  H      -80.752    -256.476    -234.757
  H      -79.491    -255.099    -238.532
  H      -79.312    -252.842    -237.545
  H      -80.684    -251.871    -234.503
  H      -78.327    -253.098    -233.542
  H      -77.049    -252.310    -235.442
  H      -78.455    -249.615    -234.992
  H      -76.517    -249.567    -236.552
  H      -77.272    -250.856    -237.527
  P      -75.008    -251.653    -233.815
  C      -74.156    -253.932    -233.008
  O      -75.296    -253.098    -233.189
  O      -73.986    -250.850    -233.081
  O      -74.506    -251.998    -235.301
  H      -73.603    -251.647    -235.418
  H      -74.461    -254.867    -232.587
  H      -73.464    -253.452    -232.348
  H      -73.686    -254.104    -233.954

 6  7  8  9  10  11  12  13  14  15  16  27  31  32  33  34  35 0
 6-311+G(2d,p)
 ****
 36  37 0
 6-311+G(2d,p)
 ****
 1  2  3  4  5  17  18  19  20  21  22  23  24  25 0
 3-21G
 ****
 26  28  29  30  38  39  40  41  42  43  44  45 0
 3-21G
 ****


