%nproc=1
%NoSave
%Mem=1900MB
#P OB98/GEN NMR

erre ene a

0 1
  C      -53.454     -58.385     108.127
  O      -54.858     -58.428     108.296
  P      -55.504     -58.979     109.649
  C      -55.522     -61.170     110.979
  O      -54.970     -60.480     109.865
  C      -54.876     -62.543     111.156
  O      -53.449     -62.373     111.385
  C      -55.430     -63.366     112.330
  O      -55.381     -64.741     111.929
  C      -54.409     -63.117     113.426
  O      -54.431     -64.114     114.441
  C      -53.125     -63.080     112.599
  N      -48.760     -63.731     115.181
  C      -49.642     -64.615     114.672
  N      -50.796     -64.363     114.018
  C      -51.004     -63.040     113.913
  C      -50.210     -62.019     114.411
  C      -49.024     -62.407     115.063
  N      -48.099     -61.515     115.557
  N      -50.790     -60.791     114.152
  C      -51.908     -61.069     113.513
  N      -52.044     -62.412     113.288
  O      -56.984     -58.824     109.761
  O      -54.750     -58.161     110.801
  H      -55.267     -64.031     114.938
  H      -55.349     -57.487     111.175
  H      -49.384     -65.665     114.795
  H      -52.645     -60.347     113.190
  H      -52.784     -64.087     112.327
  H      -54.605     -62.146     113.900
  H      -56.445     -63.087     112.628
  H      -54.985     -63.097     110.216
  H      -56.595     -61.293     110.804
  H      -47.225     -61.901     115.885
  H      -48.134     -60.546     115.249
  H      -55.387     -60.570     111.890
  P      -56.509     -65.760     112.436
  C      -57.095     -66.931     114.635
  O      -56.272     -65.965     114.004
  O      -56.637     -67.017     111.636
  O      -57.854     -64.888     112.383
  H      -58.628     -65.478     112.399
  H      -58.075     -66.490     114.848
  H      -56.630     -67.234     115.576
  H      -57.225     -67.813     114.001
  H      -53.223     -57.987     107.161
  H      -53.054     -59.374     108.210
  H      -53.023     -57.761     108.882

 3  4  5  6  7  8  9  10  11  12  22  25  29  30  31  32 0
 6-311+G(2d,p)
 ****
 33  36  37 0
 6-311+G(2d,p)
 ****
 1  2  13  14  15  16  17  18  19  20  21  23  24  26 0
 3-21G
 ****
 27  28  34  35  38  39  40  41  42  43  44  45  46  47  48 0
 3-21G
 ****


