%nproc=1
%NoSave
%Mem=1900MB
#P OB98/GEN NMR

erre ene a

0 1
  C      -67.645      68.129     230.038
  O      -66.798      68.146     231.168
  H      -67.129      67.615     229.223
  H      -67.877      69.148     229.717
  H      -68.569      67.589     230.262
  P      -67.291      68.904     232.490
  C      -65.855      67.460     234.076
  O      -66.112      68.767     233.570
  C      -64.487      67.422     234.765
  O      -63.474      67.623     233.748
  C      -64.330      68.522     235.826
  O      -63.924      68.023     237.097
  C      -63.423      69.541     235.143
  O      -62.661      70.337     236.026
  C      -62.595      68.676     234.185
  N      -62.060      69.409     233.040
  C      -61.256      70.512     233.307
  O      -60.938      70.903     234.429
  N      -60.787      71.185     232.207
  C      -61.046      70.876     230.906
  O      -60.593      71.512     229.961
  C      -61.921      69.713     230.687
  C      -62.382      69.045     231.748
  O      -68.644      68.519     232.989
  O      -67.233      70.455     232.091
  H      -62.179      70.999     235.489
  H      -68.134      70.776     231.900
  H      -60.193      71.978     232.390
  H      -62.157      69.446     229.666
  H      -63.029      68.181     231.622
  H      -61.754      68.221     234.709
  H      -64.051      70.222     234.556
  H      -65.296      68.997     236.039
  H      -64.333      66.424     235.193
  H      -65.876      66.763     233.233
  H      -66.638      67.182     234.790
  P      -64.536      68.489     238.495
  C      -66.106      66.564     239.336
  O      -64.829      67.183     239.372
  O      -65.622      69.508     238.416
  O      -63.280      69.173     239.240
  H      -63.643      69.894     239.794
  H      -66.108      65.712     239.983
  H      -66.323      66.252     238.336
  H      -66.850      67.261     239.662

 6  7  8  9  10  11  12  13  14  15  16  26  31  32  33  34  35 0
 6-311+G(2d,p)
 ****
 36  37 0
 6-311+G(2d,p)
 ****
 1  2  3  4  5  17  18  19  20  21  22  23  24  25 0
 3-21G
 ****
 27  28  29  30  38  39  40  41  42  43  44  45 0
 3-21G
 ****


