%nproc=1
%NoSave
%Mem=1900MB
#P OB98/GEN NMR

erre ene a

0 1
  C      -60.098       0.206      59.216
  O      -59.552      -1.051      58.884
  H      -61.187       0.121      59.243
  H      -59.826       0.944      58.458
  H      -59.745       0.533      60.198
  P      -57.956      -1.202      58.941
  C      -55.950      -0.135      57.685
  O      -57.361      -0.214      57.823
  C      -55.582       0.517      56.352
  O      -55.502      -0.514      55.333
  C      -56.592       1.566      55.881
  O      -55.879       2.645      55.269
  C      -57.405       0.836      54.828
  O      -57.998       1.721      53.878
  C      -56.363      -0.128      54.245
  N      -56.995      -1.284      53.617
  C      -57.641      -1.062      52.398
  O      -57.667       0.069      51.907
  N      -58.291      -2.106      51.792
  C      -58.365      -3.252      52.393
  N      -59.050      -4.240      51.755
  C      -57.757      -3.514      53.712
  C      -57.087      -2.499      54.256
  O      -57.698      -2.653      58.320
  O      -57.346      -1.045      60.294
  H      -58.527       1.186      53.247
  H      -56.912      -3.074      58.718
  H      -57.868      -4.478      54.185
  H      -56.613      -2.595      55.226
  H      -55.741       0.383      53.496
  H      -58.212       0.274      55.312
  H      -57.217       1.955      56.688
  H      -54.580       0.953      56.444
  H      -59.468      -4.016      50.860
  H      -55.533      -1.147      57.712
  H      -59.209      -5.155      52.148
  H      -55.534       0.440      58.519
  P      -55.748       3.997      56.121
  C      -57.334       5.883      56.939
  O      -57.183       4.710      56.151
  O      -54.870       4.945      55.177
  O      -55.108       3.804      57.456
  H      -53.974       5.047      55.547
  H      -58.339       6.240      56.858
  H      -56.659       6.636      56.590
  H      -57.117       5.656      57.962

 6  7  8  9  10  11  12  13  14  15  16  26  30  31  32  33  35 0
 6-311+G(2d,p)
 ****
 37  38 0
 6-311+G(2d,p)
 ****
 1  2  3  4  5  17  18  19  20  21  22  23  24  25 0
 3-21G
 ****
 27  28  29  34  36  39  40  41  42  43  44  45  46 0
 3-21G
 ****


