%nproc=1
%NoSave
%Mem=1900MB
#P OB98/GEN NMR

erre ene a

0 1
  C        7.263    -156.505     -41.183
  O        8.420    -155.700     -41.078
  H        7.245    -157.200     -40.340
  H        7.290    -157.085     -42.110
  H        6.359    -155.894     -41.152
  P        8.613    -154.489     -42.110
  C        9.541    -152.087     -41.953
  O        9.007    -153.199     -41.246
  C        9.433    -150.828     -41.097
  O        8.048    -150.552     -40.789
  C       10.142    -150.933     -39.754
  O       11.542    -150.797     -39.903
  C        9.471    -149.806     -38.987
  O       10.052    -148.537     -39.323
  C        8.017    -149.902     -39.498
  N        7.134    -150.608     -38.572
  C        6.749    -149.913     -37.430
  O        7.140    -148.777     -37.166
  N        5.915    -150.585     -36.575
  C        5.532    -151.888     -36.692
  O        4.856    -152.471     -35.851
  C        5.988    -152.581     -37.905
  C        6.753    -151.920     -38.776
  O        7.499    -154.283     -43.081
  O        9.982    -154.848     -42.860
  H        9.841    -148.379     -40.263
  H        9.783    -155.177     -43.757
  H        5.637    -150.103     -35.736
  H        5.692    -153.612     -38.041
  H        7.105    -152.416     -39.673
  H        7.606    -148.898     -39.664
  H        9.567    -149.927     -37.907
  H        9.895    -151.885     -39.272
  H        9.823    -149.982     -41.680
  H        8.970    -151.951     -42.877
  H       10.586    -152.296     -42.208
  P       12.519    -151.264     -38.725
  C       14.886    -152.260     -38.797
  O       13.573    -152.301     -39.344
  O       11.841    -151.721     -37.476
  O       13.416    -149.969     -38.440
  H       13.284    -149.681     -37.516
  H       15.498    -152.991     -39.283
  H       14.843    -152.472     -37.749
  H       15.305    -151.287     -38.947

 6  7  8  9  10  11  12  13  14  15  16  26  31  32  33  34  35 0
 6-311+G(2d,p)
 ****
 36  37 0
 6-311+G(2d,p)
 ****
 1  2  3  4  5  17  18  19  20  21  22  23  24  25 0
 3-21G
 ****
 27  28  29  30  38  39  40  41  42  43  44  45 0
 3-21G
 ****


