%nproc=1
%NoSave
%Mem=1900MB
#P OB98/GEN NMR

erre ene a

0 1
  C       73.642    -838.041    -341.448
  O       73.033    -839.300    -341.129
  P       72.424    -839.616    -339.680
  C       70.196    -839.233    -338.418
  O       70.845    -839.303    -339.685
  C       68.669    -839.171    -338.573
  O       68.287    -838.110    -339.472
  C       68.029    -840.443    -339.130
  O       67.969    -841.459    -338.155
  C       66.673    -839.905    -339.590
  O       65.747    -839.819    -338.476
  C       67.041    -838.494    -340.092
  N       67.128    -838.426    -341.543
  C       66.039    -837.826    -342.202
  O       65.064    -837.435    -341.574
  N       66.090    -837.691    -343.574
  C       67.098    -838.192    -344.224
  N       67.094    -838.042    -345.577
  C       68.219    -838.919    -343.581
  C       68.161    -838.987    -342.244
  O       73.160    -838.979    -338.544
  O       72.472    -841.218    -339.548
  H       65.737    -840.694    -338.061
  H       72.601    -841.453    -338.611
  H       69.018    -839.345    -344.164
  H       68.944    -839.494    -341.702
  H       66.300    -837.758    -339.742
  H       66.214    -840.534    -340.359
  H       68.595    -840.780    -340.001
  H       68.248    -838.928    -337.575
  H       66.323    -837.534    -345.994
  H       70.545    -838.329    -337.900
  H       67.832    -838.391    -346.183
  H       70.489    -840.110    -337.826
  P       68.768    -842.827    -338.373
  C       71.089    -843.774    -337.790
  O       70.204    -842.661    -337.702
  O       68.775    -843.357    -339.773
  O       68.033    -843.866    -337.380
  H       68.088    -844.758    -337.766
  H       72.117    -843.431    -337.692
  H       70.986    -844.264    -338.770
  H       70.862    -844.482    -337.005
  H       73.976    -838.054    -342.465
  H       74.477    -837.875    -340.800
  H       72.927    -837.256    -341.317

 3  4  5  6  7  8  9  10  11  12  13  23  27  28  29  30  32 0
 6-311+G(2d,p)
 ****
 34  35 0
 6-311+G(2d,p)
 ****
 1  2  14  15  16  17  18  19  20  21  22  24  25  26 0
 3-21G
 ****
 31  33  36  37  38  39  40  41  42  43  44  45  46 0
 3-21G
 ****


