%nproc=1
%NoSave
%Mem=1900MB
#P OB98/GEN NMR

erre ene a

0 1
  C     -484.655     502.605    -216.169
  O     -485.004     501.779    -215.075
  H     -485.479     503.295    -216.361
  H     -484.485     501.989    -217.058
  H     -483.761     503.189    -215.949
  P     -483.863     500.907    -214.369
  C     -484.402     498.753    -215.691
  O     -483.437     499.762    -215.405
  C     -483.749     497.565    -216.413
  O     -482.573     497.149    -215.664
  C     -484.693     496.361    -216.476
  O     -484.433     495.535    -217.608
  C     -484.348     495.592    -215.208
  O     -484.690     494.213    -215.279
  C     -482.841     495.845    -215.108
  N     -482.051     492.957    -210.982
  C     -482.789     492.677    -212.115
  N     -483.385     491.465    -212.157
  N     -482.936     493.514    -213.107
  C     -482.340     494.710    -212.898
  C     -481.612     495.124    -211.812
  C     -481.421     494.173    -210.733
  O     -480.795     494.378    -209.694
  N     -481.175     496.418    -211.954
  C     -481.642     496.789    -213.122
  N     -482.337     495.783    -213.748
  O     -484.661     500.080    -213.246
  O     -482.728     501.688    -213.777
  H     -484.294     493.766    -214.517
  H     -484.050     499.796    -212.543
  H     -481.951     492.273    -210.262
  H     -481.496     497.777    -213.572
  H     -482.282     495.114    -215.707
  H     -484.908     496.024    -214.383
  H     -483.461     490.878    -211.333
  H     -485.741     496.653    -216.480
  H     -484.168     491.363    -212.818
  H     -483.399     497.875    -217.406
  H     -485.165     499.214    -216.318
  H     -484.890     498.429    -214.776
  P     -485.352     495.705    -218.908
  C     -487.256     493.920    -218.459
  O     -486.849     495.267    -218.583
  O     -484.827     494.557    -219.899
  O     -485.276     497.066    -219.542
  H     -484.421     494.954    -220.697
  H     -488.303     493.882    -218.240
  H     -486.709     493.453    -217.667
  H     -487.065     493.404    -219.377

 6  7  8  9  10  11  12  13  14  15  26  29  33  34 0
 6-311+G(2d,p)
 ****
 36  38  39  40  41 0
 6-311+G(2d,p)
 ****
 1  2  3  4  5  16  17  18  19  20  21  22  23  24  25 0
 3-21G
 ****
 27  28  30  31  32  35  37  42  43  44  45  46  47 0
 3-21G
 ****
 48  49 0
 3-21G
 ****


