%nproc=1
%NoSave
%Mem=1900MB
#P OB98/GEN NMR

erre ene a

0 1
  C      116.768    -233.961    -232.567
  O      117.355    -235.254    -232.413
  P      117.389    -235.836    -230.913
  C      119.199    -236.795    -229.324
  O      118.927    -236.100    -230.533
  C      120.641    -237.313    -229.302
  O      120.852    -238.302    -230.357
  C      121.697    -236.215    -229.503
  O      122.828    -236.578    -228.701
  C      122.016    -236.345    -230.983
  O      123.221    -235.696    -231.356
  C      121.999    -237.863    -231.118
  N      124.672    -239.762    -235.028
  C      125.038    -239.389    -233.778
  N      124.262    -238.884    -232.795
  C      122.985    -238.788    -233.205
  C      122.461    -239.125    -234.443
  C      123.373    -239.637    -235.384
  N      123.019    -240.000    -236.667
  N      121.104    -238.862    -234.491
  C      120.833    -238.308    -233.321
  N      121.918    -238.318    -232.487
  O      116.771    -237.302    -231.071
  O      116.635    -234.999    -229.932
  H      123.970    -236.076    -230.852
  H      115.832    -237.307    -230.804
  H      126.093    -239.502    -233.545
  H      119.885    -237.884    -233.031
  H      122.888    -238.329    -230.674
  H      121.205    -235.893    -231.567
  H      121.352    -235.217    -229.206
  H      120.810    -237.822    -228.343
  H      118.513    -237.641    -229.213
  H      123.740    -240.351    -237.270
  H      122.060    -239.911    -236.975
  H      119.004    -236.128    -228.479
  P      123.254    -235.621    -227.484
  C      125.081    -233.834    -227.278
  O      124.198    -234.509    -228.153
  O      124.337    -236.548    -226.750
  O      122.151    -235.155    -226.597
  H      124.990    -236.895    -227.383
  H      125.717    -233.171    -227.870
  H      125.714    -234.551    -226.750
  H      124.511    -233.234    -226.563
  H      116.799    -233.676    -233.598
  H      117.314    -233.250    -231.984
  H      115.751    -233.989    -232.235

 3  4  5  6  7  8  9  10  11  12  22  25  29  30  31  32 0
 6-311+G(2d,p)
 ****
 33  36  37 0
 6-311+G(2d,p)
 ****
 1  2  13  14  15  16  17  18  19  20  21  23  24  26 0
 3-21G
 ****
 27  28  34  35  38  39  40  41  42  43  44  45  46  47  48 0
 3-21G
 ****


