%nproc=1
%NoSave
%Mem=1900MB
#P OB98/GEN NMR

erre ene a

0 1
  C       31.744    -339.356    -172.130
  O       30.892    -338.387    -172.716
  P       31.513    -337.043    -173.328
  C       30.677    -335.635    -171.303
  O       31.765    -336.044    -172.102
  C       30.953    -334.284    -170.637
  O       29.744    -333.859    -169.961
  C       32.040    -334.309    -169.559
  O       32.486    -332.966    -169.330
  C       31.271    -334.798    -168.356
  O       31.937    -334.489    -167.127
  C       29.880    -334.146    -168.545
  N       28.787    -335.027    -168.088
  C       28.579    -335.103    -166.711
  O       29.202    -334.422    -165.898
  N       27.685    -336.061    -166.305
  C       27.046    -336.953    -167.118
  O       26.503    -337.972    -166.728
  C       27.130    -336.657    -168.564
  C       28.007    -335.741    -168.982
  O       30.263    -336.397    -174.099
  O       32.681    -337.246    -174.240
  H       31.850    -333.512    -166.999
  H       30.292    -336.625    -175.042
  H       27.640    -336.213    -165.296
  H       26.520    -337.245    -169.234
  H       28.127    -335.543    -170.046
  H       29.807    -333.199    -167.993
  H       31.183    -335.893    -168.405
  H       32.892    -334.956    -169.799
  H       31.190    -333.540    -171.401
  H       30.475    -336.403    -170.545
  H       29.769    -335.552    -171.912
  P       33.986    -332.590    -169.759
  C       34.784    -332.516    -167.311
  O       34.936    -333.130    -168.580
  O       34.216    -331.172    -170.168
  O       34.291    -333.619    -170.953
  H       35.051    -333.292    -171.482
  H       35.042    -333.239    -166.538
  H       33.752    -332.174    -167.148
  H       35.467    -331.661    -167.242
  H       31.158    -340.179    -171.778
  H       32.272    -338.917    -171.309
  H       32.445    -339.703    -172.860

 3  4  5  6  7  8  9  10  11  12  13  23  28  29  30  31  32 0
 6-311+G(2d,p)
 ****
 33  34 0
 6-311+G(2d,p)
 ****
 1  2  14  15  16  17  18  19  20  21  22  24  25  26  27 0
 3-21G
 ****
 35  36  37  38  39  40  41  42  43  44  45 0
 3-21G
 ****


