%nproc=1
%NoSave
%Mem=1900MB
#P OB98/GEN NMR

erre ene a

0 1
  C      191.862    -200.454    -287.996
  O      190.870    -199.772    -288.736
  H      192.536    -200.962    -288.692
  H      191.395    -201.204    -287.346
  H      192.443    -199.752    -287.392
  P      189.843    -198.861    -287.908
  C      187.739    -200.028    -288.918
  O      188.495    -199.727    -287.754
  C      186.310    -200.400    -288.528
  O      185.483    -200.382    -289.722
  C      186.196    -201.807    -287.913
  O      185.201    -201.790    -286.888
  C      185.717    -202.657    -289.080
  O      185.044    -203.846    -288.686
  C      184.817    -201.659    -289.820
  N      184.598    -202.026    -291.217
  C      183.388    -202.630    -291.536
  O      182.459    -202.812    -290.749
  N      183.261    -203.043    -292.841
  C      184.209    -202.928    -293.817
  O      184.045    -203.339    -294.965
  C      185.470    -202.294    -293.411
  C      185.608    -201.877    -292.149
  O      189.423    -197.725    -288.961
  O      190.360    -198.294    -286.632
  H      190.025    -196.956    -288.890
  H      184.784    -204.328    -289.498
  H      182.388    -203.482    -293.096
  H      186.247    -202.198    -294.161
  H      186.526    -201.413    -291.819
  H      183.853    -201.566    -289.304
  H      186.567    -202.945    -289.710
  H      187.142    -202.171    -287.509
  H      185.912    -199.638    -287.842
  H      188.208    -200.870    -289.440
  H      187.734    -199.153    -289.582
  P      185.694    -201.491    -285.387
  C      185.721    -204.011    -284.676
  O      186.461    -202.819    -284.903
  O      184.312    -201.517    -284.588
  O      186.475    -200.218    -285.272
  H      183.683    -202.181    -284.919
  H      186.385    -204.789    -284.361
  H      185.231    -204.305    -285.581
  H      184.989    -203.837    -283.915

 6  7  8  9  10  11  12  13  14  15  16  27  31  32  33  34  35 0
 6-311+G(2d,p)
 ****
 36  37 0
 6-311+G(2d,p)
 ****
 1  2  3  4  5  17  18  19  20  21  22  23  24  25 0
 3-21G
 ****
 26  28  29  30  38  39  40  41  42  43  44  45 0
 3-21G
 ****


