%nproc=1
%NoSave
%Mem=1900MB
#P OB98/GEN NMR

erre ene a

0 1
  C      101.132     -36.246      36.899
  O      102.520     -35.993      36.739
  P      103.222     -36.537      35.401
  C      103.839     -38.948      34.668
  O      103.706     -38.028      35.745
  C      104.099     -40.353      35.194
  O      102.951     -40.820      35.926
  C      104.347     -41.398      34.116
  O      105.684     -41.363      33.642
  C      104.071     -42.682      34.883
  O      105.235     -43.051      35.646
  C      102.925     -42.267      35.821
  N       99.158     -45.601      36.386
  C      100.353     -45.491      37.069
  N      100.561     -46.383      38.062
  N      101.262     -44.593      36.801
  C      100.900     -43.744      35.811
  C       99.746     -43.751      35.059
  C       98.770     -44.784      35.332
  O       97.723     -44.969      34.717
  N       99.733     -42.720      34.156
  C      100.856     -42.070      34.384
  N      101.613     -42.670      35.358
  O      104.591     -35.709      35.348
  O      102.424     -36.372      34.154
  H      106.013     -42.864      35.088
  H      104.906     -35.648      34.425
  H       98.485     -46.301      36.645
  H      101.158     -41.167      33.870
  H      103.076     -42.663      36.832
  H      103.836     -43.528      34.229
  H       99.847     -47.010      38.399
  H      103.627     -41.297      33.297
  H      101.415     -46.295      38.597
  H      104.948     -40.307      35.889
  H      104.679     -38.644      34.036
  H      102.923     -38.925      34.069
  P      106.023     -42.301      32.381
  C      105.917     -44.875      32.048
  O      106.019     -43.796      32.957
  O      107.568     -41.996      32.103
  O      105.172     -42.051      31.183
  H      107.783     -42.168      31.166
  H      106.457     -44.669      31.119
  H      104.864     -45.063      31.823
  H      106.346     -45.766      32.510
  H      100.799     -35.831      37.827
  H      100.959     -37.302      36.898
  H      100.592     -35.795      36.093

 3  4  5  6  7  8  9  10  11  12  23  26  30  31  33  0
 6-311+G(2d,p)
 ****
 35  36  37  38 0
 6-311+G(2d,p)
 ****
 1  2  13  14  15  16  17  18  19  20  21  22  24  25  27  28  29 0
 3-21G
 ****
 32  34  39  40  41  42  43  44  45  46  47  48  49 0
 3-21G
 ****


