%nproc=1
%NoSave
%Mem=1900MB
#P OB98/GEN NMR

erre ene a

0 1
  C     1168.068     287.000     426.721
  O     1169.334     287.663     426.828
  P     1169.384     289.196     426.372
  C     1171.145     289.179     424.472
  O     1169.774     289.248     424.814
  C     1171.340     288.899     422.964
  O     1172.740     288.999     422.602
  C     1170.877     287.492     422.560
  O     1170.361     287.580     421.206
  C     1172.162     286.685     422.525
  O     1172.031     285.498     421.743
  C     1173.141     287.745     421.986
  N     1177.880     287.621     420.053
  C     1176.680     287.984     419.535
  N     1175.447     287.971     420.098
  C     1175.538     287.552     421.382
  C     1176.669     287.138     422.060
  C     1177.880     287.177     421.337
  N     1179.080     286.773     421.886
  N     1176.356     286.745     423.344
  C     1175.047     286.915     423.434
  N     1174.528     287.422     422.283
  O     1170.704     289.757     427.101
  O     1168.187     290.007     426.752
  H     1171.503     284.865     422.273
  H     1170.457     290.333     427.840
  H     1176.714     288.341     418.486
  H     1174.433     286.674     424.304
  H     1173.054     287.859     420.878
  H     1172.435     286.397     423.546
  H     1170.116     287.043     423.206
  H     1170.806     289.641     422.401
  H     1171.653     288.389     425.044
  H     1179.899     286.819     421.295
  H     1179.112     286.407     422.816
  H     1171.641     290.125     424.765
  P     1168.789     287.807     421.052
  C     1168.124     285.286     421.018
  O     1168.100     286.514     421.707
  O     1168.538     287.583     419.488
  O     1168.298     289.124     421.528
  H     1167.735     288.073     419.219
  H     1168.325     284.482     421.728
  H     1168.893     285.253     420.234
  H     1167.149     285.117     420.558
  H     1168.166     285.988     427.054
  H     1167.745     287.010     425.701
  H     1167.347     287.507     427.328

 3  4  5  6  7  8  9  10  11  12  22  25  29  30  31  32 0
 6-311+G(2d,p)
 ****
 33  36  37 0
 6-311+G(2d,p)
 ****
 1  2  13  14  15  16  17  18  19  20  21  23  24  26 0
 3-21G
 ****
 27  28  34  35  38  39  40  41  42  43  44  45  46  47  48 0
 3-21G
 ****


