%nproc=1
%NoSave
%Mem=1900MB
#P OB98/GEN NMR

erre ene a

0 1
  C     -326.814     217.582     -11.105
  O     -325.888     216.550     -11.349
  P     -324.307     216.751     -11.330
  C     -324.063     217.146     -13.904
  O     -323.895     217.659     -12.588
  C     -322.809     217.386     -14.754
  O     -322.579     218.817     -14.849
  C     -321.559     216.776     -14.096
  O     -320.679     216.126     -15.006
  C     -320.993     217.944     -13.294
  O     -319.619     217.791     -12.957
  C     -321.333     219.129     -14.194
  N     -318.984     223.323     -12.547
  C     -318.526     222.360     -13.427
  N     -317.225     222.437     -13.770
  N     -319.283     221.400     -13.899
  C     -320.530     221.389     -13.381
  C     -321.093     222.289     -12.505
  C     -320.264     223.363     -12.015
  O     -320.585     224.168     -11.146
  N     -322.366     221.921     -12.142
  C     -322.561     220.783     -12.776
  N     -321.466     220.401     -13.514
  O     -323.479     215.546     -11.034
  O     -324.124     217.785     -10.099
  H     -319.125     217.691     -13.788
  H     -323.273     217.565      -9.667
  H     -318.329     223.994     -12.158
  H     -323.462     220.180     -12.712
  H     -320.574     219.275     -14.964
  H     -321.545     217.994     -12.353
  H     -316.588     223.074     -13.310
  H     -321.838     215.975     -13.404
  H     -316.813     221.616     -14.204
  H     -322.979     217.005     -15.766
  H     -324.917     217.683     -14.337
  H     -324.314     216.082     -13.876
  P     -319.969     214.703     -14.872
  C     -317.516     215.417     -14.604
  O     -318.656     214.869     -13.967
  O     -319.365     214.403     -16.319
  O     -320.872     213.591     -14.449
  H     -319.480     213.453     -16.531
  H     -316.639     215.227     -13.986
  H     -317.647     216.497     -14.717
  H     -317.366     214.963     -15.591
  H     -327.808     217.193     -11.175
  H     -326.683     218.358     -11.830
  H     -326.655     217.979     -10.124

 3  4  5  6  7  8  9  10  11  12  23  26  30  31 0
 6-311+G(2d,p)
 ****
 33  35  36  37  38 0
 6-311+G(2d,p)
 ****
 1  2  13  14  15  16  17  18  19  20  21  22  24  25 0
 3-21G
 ****
 27  28  29  32  34  39  40  41  42  43  44  45  46  47  48  49 0
 3-21G
 ****


