%nproc=1
%NoSave
%Mem=1900MB
#P OB98/GEN NMR

erre ene a

0 1
  C       42.597    -531.736     885.541
  O       41.447    -532.557     885.550
  H       43.460    -532.318     885.211
  H       42.439    -530.918     884.835
  H       42.784    -531.317     886.533
  P       41.329    -533.647     886.723
  C       39.392    -532.528     888.043
  O       40.773    -532.867     888.013
  C       38.981    -532.097     889.453
  O       38.999    -533.274     890.311
  C       39.890    -531.038     890.083
  O       39.072    -530.123     890.826
  C       40.738    -531.836     891.056
  O       41.234    -531.053     892.136
  C       39.758    -532.923     891.483
  N       41.585    -534.981     895.763
  C       40.707    -533.977     895.552
  N       40.232    -533.525     894.371
  C       40.701    -534.264     893.352
  C       41.599    -535.325     893.416
  C       42.064    -535.660     894.700
  N       43.009    -536.634     894.930
  N       41.880    -535.785     892.146
  C       41.195    -535.014     891.335
  N       40.466    -534.077     892.017
  O       42.869    -533.927     887.087
  O       40.604    -534.902     886.370
  H       40.476    -530.641     892.599
  H       43.218    -534.630     886.511
  H       40.343    -533.462     896.434
  H       41.210    -535.061     890.254
  H       39.058    -532.580     892.262
  H       41.595    -532.266     890.523
  H       40.494    -530.480     889.358
  H       37.941    -531.748     889.412
  H       38.808    -533.400     887.749
  H       43.360    -536.736     895.867
  H       43.454    -537.077     894.132
  H       39.207    -531.717     887.332
  P       39.186    -528.569     890.469
  C       36.899    -527.504     891.126
  O       37.730    -528.018     890.089
  O       39.958    -528.572     889.062
  O       39.920    -527.758     891.491
  H       40.518    -527.779     888.984
  H       35.968    -527.179     890.709
  H       37.387    -526.676     891.597
  H       36.718    -528.270     891.850

 6  7  8  9  10  11  12  13  14  15  25  28  32  33  34  35 0
 6-311+G(2d,p)
 ****
 36  39  40 0
 6-311+G(2d,p)
 ****
 1  2  3  4  5  16  17  18  19  20  21  22  23  24 0
 3-21G
 ****
 26  27  29  30  31  37  38  41  42  43  44  45  46  47 0
 3-21G
 ****
 48 0
 3-21G
 ****


