%nproc=1
%NoSave
%Mem=1900MB
#P OB98/GEN NMR

erre ene a

0 1
  C     -625.732     818.373    -201.271
  O     -624.680     818.271    -200.309
  P     -624.468     816.831    -199.600
  C     -626.271     817.410    -197.803
  O     -625.824     816.493    -198.813
  C     -627.732     817.152    -197.462
  O     -627.908     815.887    -196.781
  C     -628.348     818.199    -196.527
  O     -628.714     819.384    -197.213
  C     -629.562     817.456    -196.019
  O     -630.643     817.575    -196.970
  C     -629.070     815.993    -195.952
  N     -630.138     812.801    -192.168
  C     -630.727     812.917    -193.411
  N     -631.727     812.054    -193.694
  N     -630.371     813.805    -194.298
  C     -629.343     814.589    -193.873
  C     -628.683     814.565    -192.668
  C     -629.104     813.593    -191.696
  O     -628.636     813.461    -190.564
  N     -627.683     815.512    -192.628
  C     -627.735     816.081    -193.794
  N     -628.722     815.570    -194.613
  O     -623.427     817.143    -198.439
  O     -623.980     815.769    -200.534
  H     -630.330     817.176    -197.804
  H     -622.903     816.349    -198.229
  H     -630.459     812.086    -191.519
  H     -627.068     816.879    -194.141
  H     -629.816     815.298    -196.344
  H     -629.945     817.846    -195.072
  H     -631.997     811.280    -193.096
  H     -627.658     818.411    -195.683
  H     -632.136     812.098    -194.625
  H     -628.308     817.133    -198.394
  H     -626.153     818.442    -198.169
  H     -625.623     817.313    -196.931
  P     -627.682     820.621    -197.146
  C     -628.849     821.370    -194.933
  O     -627.635     821.041    -195.598
  O     -628.529     821.793    -197.826
  O     -626.384     820.393    -197.821
  H     -627.902     822.453    -198.242
  H     -629.638     820.677    -195.195
  H     -629.122     822.396    -195.197
  H     -628.668     821.329    -193.866
  H     -625.764     819.369    -201.660
  H     -626.666     818.143    -200.803
  H     -625.553     817.683    -202.069

 3  4  5  6  7  8  9  10  11  12  23  26  30  31  33  0
 6-311+G(2d,p)
 ****
 35  36  37  38 0
 6-311+G(2d,p)
 ****
 1  2  13  14  15  16  17  18  19  20  21  22  24  25  27  28  29 0
 3-21G
 ****
 32  34  39  40  41  42  43  44  45  46  47  48  49 0
 3-21G
 ****


