%nproc=1
%NoSave
%Mem=1900MB
#P OB98/GEN NMR

erre ene a

0 1
  C     -373.949     258.726     -42.673
  O     -374.394     258.616     -44.007
  H     -374.171     257.792     -42.152
  H     -374.476     259.543     -42.172
  H     -372.871     258.902     -42.629
  P     -373.911     259.704     -45.076
  C     -371.618     260.827     -44.692
  O     -372.307     259.658     -45.106
  C     -370.145     260.770     -45.115
  O     -369.543     259.574     -44.559
  C     -370.002     260.673     -46.638
  O     -368.776     261.236     -47.098
  C     -369.977     259.173     -46.878
  O     -369.353     258.811     -48.109
  C     -369.232     258.679     -45.640
  N     -368.549     253.712     -46.563
  C     -368.157     254.802     -47.316
  N     -367.494     254.532     -48.465
  N     -368.412     256.040     -46.985
  C     -369.145     256.158     -45.852
  C     -369.610     255.154     -45.033
  C     -369.291     253.789     -45.391
  O     -369.634     252.786     -44.773
  N     -370.326     255.660     -43.976
  C     -370.296     256.966     -44.156
  N     -369.571     257.320     -45.269
  O     -374.201     261.103     -44.349
  O     -374.575     259.634     -46.417
  H     -368.390     258.888     -47.983
  H     -374.278     261.817     -45.006
  H     -368.301     252.781     -46.847
  H     -370.768     257.695     -43.508
  H     -368.146     258.713     -45.802
  H     -371.010     258.817     -46.924
  H     -367.452     253.598     -48.847
  H     -370.827     261.141     -47.168
  H     -367.480     255.276     -49.166
  H     -369.601     261.624     -44.697
  H     -371.705     260.882     -43.605
  H     -372.103     261.717     -45.100
  P     -368.747     262.788     -47.496
  C     -369.805     263.919     -45.348
  O     -368.686     263.685     -46.176
  O     -370.209     263.059     -48.075
  O     -367.677     263.153     -48.479
  H     -370.162     263.293     -49.022
  H     -369.518     264.546     -44.530
  H     -370.172     262.987     -44.972
  H     -370.573     264.402     -45.915

 6  7  8  9  10  11  12  13  14  15  26  29  33  34 0
 6-311+G(2d,p)
 ****
 36  38  39  40  41 0
 6-311+G(2d,p)
 ****
 1  2  3  4  5  16  17  18  19  20  21  22  23  24  25 0
 3-21G
 ****
 27  28  30  31  32  35  37  42  43  44  45  46  47 0
 3-21G
 ****
 48  49 0
 3-21G
 ****


