%nproc=1
%NoSave
%Mem=1900MB
#P OB98/GEN NMR

erre ene a

0 1
  C     -175.102    -347.991     393.177
  O     -176.014    -347.567     394.167
  P     -175.568    -347.061     395.615
  C     -175.116    -344.527     395.254
  O     -174.553    -345.825     395.422
  C     -174.618    -343.514     396.299
  O     -175.273    -343.773     397.558
  C     -173.116    -343.709     396.542
  O     -172.169    -343.106     395.678
  C     -172.915    -343.405     398.024
  O     -172.445    -342.073     398.257
  C     -174.315    -343.592     398.618
  N     -173.106    -345.425     403.185
  C     -173.063    -344.119     402.738
  N     -172.442    -343.234     403.545
  N     -173.560    -343.731     401.588
  C     -174.062    -344.752     400.850
  C     -174.177    -346.083     401.198
  C     -173.659    -346.486     402.481
  O     -173.601    -347.647     402.889
  N     -174.669    -346.840     400.167
  C     -174.819    -345.981     399.182
  N     -174.427    -344.710     399.530
  O     -175.228    -348.114     396.623
  O     -176.908    -346.321     396.121
  H     -171.921    -342.082     399.076
  H     -176.967    -346.456     397.091
  H     -172.637    -345.673     404.049
  H     -175.179    -346.231     398.189
  H     -174.622    -342.698     399.170
  H     -172.158    -344.080     398.453
  H     -171.918    -343.519     404.358
  H     -172.917    -344.781     396.447
  H     -172.240    -342.313     403.172
  H     -174.887    -342.493     396.022
  H     -176.204    -344.631     395.301
  H     -174.873    -344.157     394.251
  P     -170.658    -343.574     395.454
  C     -171.096    -345.627     393.987
  O     -170.647    -345.160     395.249
  O     -169.967    -343.391     396.891
  O     -169.909    -342.802     394.415
  H     -169.004    -343.309     396.781
  H     -171.327    -346.690     394.068
  H     -170.298    -345.494     393.244
  H     -171.990    -345.084     393.670
  H     -175.639    -348.281     392.298
  H     -174.540    -348.825     393.543
  H     -174.435    -347.189     392.939

 3  4  5  6  7  8  9  10  11  12  23  26  30  31 0
 6-311+G(2d,p)
 ****
 33  35  36  37  38 0
 6-311+G(2d,p)
 ****
 1  2  13  14  15  16  17  18  19  20  21  22  24  25 0
 3-21G
 ****
 27  28  29  32  34  39  40  41  42  43  44  45  46  47  48  49 0
 3-21G
 ****


