%nproc=1
%NoSave
%Mem=1900MB
#P OB98/GEN NMR

erre ene a

0 1
  C       98.997     143.343     -11.074
  O       99.726     144.375     -11.707
  H       97.930     143.518     -11.236
  H       99.196     143.353     -10.000
  H       99.262     142.369     -11.495
  P      101.320     144.199     -11.766
  C      102.455     145.761     -10.032
  O      101.867     144.494     -10.287
  C      103.532     145.636      -8.959
  O      103.078     144.780      -7.888
  C      104.844     145.036      -9.455
  O      105.666     146.011     -10.084
  C      105.452     144.571      -8.142
  O      105.998     145.700      -7.431
  C      104.223     144.023      -7.404
  N      104.837     139.362      -5.510
  C      105.232     140.585      -5.003
  N      105.895     140.563      -3.827
  N      105.004     141.728      -5.596
  C      104.342     141.597      -6.770
  C      103.896     140.442      -7.374
  C      104.148     139.187      -6.704
  O      103.799     138.078      -7.097
  N      103.255     140.710      -8.555
  C      103.330     142.020      -8.677
  N      103.986     142.606      -7.622
  O      101.804     145.480     -12.600
  O      101.801     142.933     -12.391
  H      106.645     146.121      -8.026
  H      102.566     145.224     -13.154
  H      105.047     138.511      -5.018
  H      102.926     142.589      -9.501
  H      104.285     144.175      -6.321
  H      106.264     143.858      -8.284
  H      106.146     139.715      -3.343
  H      104.671     144.171     -10.104
  H      106.166     141.448      -3.420
  H      103.701     146.633      -8.533
  H      101.681     146.454      -9.688
  H      102.890     146.144     -10.960
  P      106.542     145.542     -11.347
  C      108.632     145.121      -9.864
  O      107.668     144.566     -10.751
  O      107.361     146.863     -11.727
  O      105.757     145.015     -12.498
  H      107.639     146.825     -12.662
  H      109.312     144.356      -9.552
  H      108.136     145.528      -9.008
  H      109.173     145.896     -10.365

 6  7  8  9  10  11  12  13  14  15  26  29  33  34 0
 6-311+G(2d,p)
 ****
 36  38  39  40  41 0
 6-311+G(2d,p)
 ****
 1  2  3  4  5  16  17  18  19  20  21  22  23  24  25 0
 3-21G
 ****
 27  28  30  31  32  35  37  42  43  44  45  46  47 0
 3-21G
 ****
 48  49 0
 3-21G
 ****


