%nproc=1
%NoSave
%Mem=1900MB
#P OB98/GEN NMR

erre ene a

0 1
  C     -222.901    -212.381    -341.061
  O     -222.411    -212.991    -342.250
  P     -222.430    -212.212    -343.658
  C     -224.194    -212.139    -345.549
  O     -223.955    -212.288    -344.160
  C     -225.689    -211.924    -345.821
  O     -226.391    -213.159    -345.523
  C     -226.333    -210.813    -344.964
  O     -227.323    -210.190    -345.766
  C     -226.969    -211.583    -343.825
  O     -228.008    -210.859    -343.190
  C     -227.420    -212.848    -344.555
  N     -227.635    -213.976    -343.652
  C     -228.929    -214.175    -343.163
  O     -229.853    -213.404    -343.472
  N     -229.165    -215.232    -342.327
  C     -228.180    -215.993    -341.949
  N     -228.473    -217.076    -341.166
  C     -226.782    -215.754    -342.358
  C     -226.592    -214.759    -343.211
  O     -221.415    -212.679    -344.646
  O     -222.287    -210.664    -343.257
  H     -227.622    -210.070    -342.764
  H     -221.348    -210.386    -343.142
  H     -225.988    -216.389    -341.986
  H     -225.600    -214.520    -343.582
  H     -228.338    -212.651    -345.129
  H     -226.204    -211.810    -343.062
  H     -225.599    -210.056    -344.637
  H     -225.820    -211.706    -346.885
  H     -229.453    -217.295    -341.056
  H     -223.874    -213.052    -346.064
  H     -227.835    -217.864    -341.103
  H     -223.599    -211.303    -345.945
  P     -227.515    -208.584    -345.649
  C     -228.424    -206.992    -343.816
  O     -227.823    -208.236    -344.121
  O     -228.957    -208.375    -346.337
  O     -226.491    -207.745    -346.348
  H     -228.999    -207.474    -346.690
  H     -228.559    -206.930    -342.730
  H     -229.402    -206.902    -344.296
  H     -227.770    -206.167    -344.138
  H     -222.799    -213.062    -340.242
  H     -223.933    -212.129    -341.189
  H     -222.340    -211.493    -340.858

 3  4  5  6  7  8  9  10  11  12  13  23  27  28  29  30  32 0
 6-311+G(2d,p)
 ****
 34  35 0
 6-311+G(2d,p)
 ****
 1  2  14  15  16  17  18  19  20  21  22  24  25  26 0
 3-21G
 ****
 31  33  36  37  38  39  40  41  42  43  44  45  46 0
 3-21G
 ****


