%nproc=1
%NoSave
%Mem=1900MB
#P OB98/GEN NMR

erre ene a

0 1
  C     -161.888      29.232     -96.869
  O     -161.411      30.217     -95.975
  H     -162.148      28.338     -96.299
  H     -161.122      28.969     -97.602
  H     -162.785      29.592     -97.381
  P     -160.808      31.577     -96.572
  C     -162.850      33.141     -96.700
  O     -161.692      32.771     -95.964
  C     -163.690      34.153     -95.918
  O     -164.404      33.446     -94.869
  C     -162.861      35.264     -95.264
  O     -163.605      36.483     -95.339
  C     -162.750      34.794     -93.829
  O     -162.501      35.871     -92.946
  C     -164.085      34.076     -93.614
  N     -163.995      33.107     -92.521
  C     -163.620      33.610     -91.271
  O     -163.398      34.814     -91.126
  N     -163.439      32.735     -90.231
  C     -163.566      31.460     -90.430
  N     -163.334      30.647     -89.367
  C     -163.934      30.883     -91.740
  C     -164.133      31.755     -92.730
  O     -160.631      31.622     -98.054
  O     -159.409      31.736     -95.808
  H     -162.291      35.520     -92.054
  H     -158.698      31.307     -96.320
  H     -164.020      29.813     -91.858
  H     -164.395      31.419     -93.728
  H     -164.883      34.794     -93.383
  H     -161.917      34.085     -93.737
  H     -161.880      35.396     -95.730
  H     -164.448      34.572     -96.591
  H     -163.060      31.087     -88.496
  H     -163.440      32.236     -96.880
  H     -163.360      29.639     -89.411
  H     -162.556      33.566     -97.665
  P     -162.977      37.783     -96.040
  C     -163.487      37.074     -98.447
  O     -163.736      38.044     -97.433
  O     -161.486      37.784     -96.136
  O     -163.480      38.997     -95.118
  H     -162.819      39.715     -95.144
  H     -164.033      37.333     -99.330
  H     -163.801      36.110     -98.104
  H     -162.440      37.050     -98.669

 6  7  8  9  10  11  12  13  14  15  16  26  30  31  32  33  35 0
 6-311+G(2d,p)
 ****
 37  38 0
 6-311+G(2d,p)
 ****
 1  2  3  4  5  17  18  19  20  21  22  23  24  25 0
 3-21G
 ****
 27  28  29  34  36  39  40  41  42  43  44  45  46 0
 3-21G
 ****


