%nproc=1
%NoSave
%Mem=1900MB
#P OB98/GEN NMR

erre ene a

0 1
  C     -566.672    -602.634      85.718
  O     -568.010    -602.154      85.560
  P     -569.268    -602.786      86.307
  C     -570.022    -600.587      87.454
  O     -569.552    -601.909      87.632
  C     -569.994    -599.809      88.776
  O     -568.627    -599.676      89.241
  C     -570.492    -598.367      88.707
  O     -571.910    -598.301      88.574
  C     -569.944    -597.799      90.016
  O     -570.812    -598.077      91.104
  C     -568.618    -598.562      90.172
  N     -567.444    -597.740      89.948
  C     -567.233    -596.713      90.890
  O     -568.026    -596.502      91.794
  N     -566.091    -595.936      90.765
  C     -565.298    -596.114      89.752
  N     -564.189    -595.323      89.688
  C     -565.576    -597.068      88.672
  C     -566.650    -597.841      88.834
  O     -569.151    -604.245      86.576
  O     -570.536    -602.462      85.366
  H     -571.235    -603.136      85.517
  H     -571.039    -599.030      91.045
  H     -564.926    -597.135      87.814
  H     -566.922    -598.594      88.090
  H     -568.560    -599.019      91.158
  H     -569.834    -596.716      89.944
  H     -570.014    -597.862      87.836
  H     -570.576    -600.371      89.527
  H     -564.015    -594.674      90.446
  H     -571.069    -600.639      87.096
  H     -563.510    -595.375      88.943
  H     -569.432    -600.077      86.685
  P     -572.499    -597.801      87.179
  C     -573.245    -600.115      86.289
  O     -572.379    -599.011      86.136
  O     -571.416    -596.743      86.681
  O     -573.857    -597.180      87.269
  H     -571.870    -595.995      86.246
  H     -573.397    -600.588      85.295
  H     -574.211    -599.848      86.677
  H     -572.777    -600.865      86.944
  H     -566.009    -602.048      85.116
  H     -566.622    -603.658      85.411
  H     -566.384    -602.555      86.745

 3  4  5  6  7  8  9  10  11  12  13  24  27  28  29  30  32 0
 6-311+G(2d,p)
 ****
 34  35 0
 6-311+G(2d,p)
 ****
 1  2  14  15  16  17  18  19  20  21  22  23  25  26 0
 3-21G
 ****
 31  33  36  37  38  39  40  41  42  43  44  45  46 0
 3-21G
 ****


