%nproc=1
%NoSave
%Mem=1900MB
#P OB98/GEN NMR

erre ene a

0 1
  C      190.351     595.897    -490.655
  O      191.078     595.170    -491.623
  H      189.903     595.197    -489.950
  H      189.552     596.469    -491.141
  H      191.015     596.575    -490.107
  P      191.963     596.026    -492.654
  C      193.959     596.622    -491.041
  O      192.807     597.050    -491.753
  C      195.222     596.809    -491.879
  O      195.434     598.232    -492.090
  C      196.486     596.239    -491.226
  O      197.327     595.719    -492.258
  C      197.141     597.464    -490.611
  O      198.545     597.279    -490.417
  C      196.761     598.552    -491.628
  N      196.825     599.898    -491.055
  C      197.308     600.909    -491.878
  O      197.671     600.659    -493.032
  N      197.409     602.186    -491.377
  C      197.117     602.412    -490.137
  N      197.264     603.688    -489.688
  C      196.646     601.358    -489.205
  C      196.514     600.145    -489.733
  O      190.861     596.946    -493.352
  O      192.777     595.204    -493.606
  H      198.671     596.561    -489.758
  H      190.230     597.336    -492.724
  H      196.426     601.596    -488.177
  H      196.165     599.311    -489.132
  H      197.435     598.520    -492.500
  H      196.691     597.680    -489.639
  H      196.270     595.459    -490.493
  H      195.054     596.362    -492.869
  H      197.616     604.376    -490.348
  H      193.859     595.565    -490.762
  H      197.121     603.975    -488.728
  H      194.023     597.207    -490.120
  P      197.850     594.200    -492.163
  C      195.827     593.264    -493.476
  O      196.600     593.208    -492.282
  O      198.803     593.915    -491.048
  O      198.582     593.995    -493.580
  H      199.407     593.489    -493.425
  H      195.030     592.552    -493.419
  H      196.450     593.035    -494.315
  H      195.420     594.247    -493.591

 6  7  8  9  10  11  12  13  14  15  16  26  30  31  32  33  35 0
 6-311+G(2d,p)
 ****
 37  38 0
 6-311+G(2d,p)
 ****
 1  2  3  4  5  17  18  19  20  21  22  23  24  25 0
 3-21G
 ****
 27  28  29  34  36  39  40  41  42  43  44  45  46 0
 3-21G
 ****


