%nproc=1
%NoSave
%Mem=1900MB
#P OB98/GEN NMR

erre ene a

0 1
  C      422.722    -196.094     237.811
  O      423.666    -197.120     238.048
  H      422.763    -195.364     238.622
  H      422.977    -195.593     236.873
  H      421.712    -196.506     237.725
  P      423.322    -198.180     239.204
  C      422.484    -198.025     241.655
  O      422.847    -197.320     240.479
  C      422.285    -197.053     242.819
  O      423.594    -196.575     243.250
  C      421.423    -195.827     242.482
  O      420.599    -195.521     243.617
  C      422.448    -194.718     242.306
  O      421.911    -193.425     242.550
  C      423.519    -195.142     243.315
  N      426.038    -190.719     243.247
  C      424.890    -191.095     243.856
  N      424.314    -192.316     243.866
  C      425.085    -193.210     243.215
  C      426.271    -192.976     242.548
  C      426.748    -191.652     242.566
  N      427.875    -191.241     241.893
  N      426.730    -194.139     241.951
  C      425.810    -195.047     242.232
  N      424.800    -194.533     242.990
  O      424.777    -198.711     239.625
  O      422.414    -199.295     238.805
  H      422.650    -192.785     242.621
  H      425.028    -199.464     239.059
  H      424.363    -190.313     244.396
  H      425.822    -196.073     241.886
  H      423.267    -194.851     244.340
  H      422.838    -194.740     241.285
  H      420.794    -195.959     241.595
  H      421.856    -197.608     243.665
  H      423.281    -198.733     241.915
  H      428.075    -190.251     241.873
  H      428.351    -191.902     241.293
  H      421.560    -198.592     241.467
  P      419.145    -196.198     243.675
  C      416.772    -195.508     242.846
  O      418.179    -195.414     242.660
  O      418.600    -195.761     245.111
  O      419.163    -197.686     243.517
  H      418.022    -196.460     245.480
  H      416.274    -194.934     242.093
  H      416.514    -195.129     243.813
  H      416.470    -196.532     242.772

 6  7  8  9  10  11  12  13  14  15  25  28  32  33  34  35 0
 6-311+G(2d,p)
 ****
 36  39  40 0
 6-311+G(2d,p)
 ****
 1  2  3  4  5  16  17  18  19  20  21  22  23  24 0
 3-21G
 ****
 26  27  29  30  31  37  38  41  42  43  44  45  46  47 0
 3-21G
 ****
 48 0
 3-21G
 ****


