%nproc=1
%NoSave
%Mem=1900MB
#P OB98/GEN NMR

erre ene a

0 1
  C       36.470     140.836     -89.270
  O       35.781     140.056     -88.319
  H       35.756     141.167     -90.030
  H       37.243     140.243     -89.763
  H       36.914     141.716     -88.799
  P       36.596     139.398     -87.103
  C       35.507     141.210     -85.648
  O       36.723     140.564     -85.999
  C       35.699     142.124     -84.437
  O       35.995     141.320     -83.263
  C       36.842     143.137     -84.604
  O       36.401     144.435     -84.202
  C       37.904     142.638     -83.635
  O       38.794     143.665     -83.207
  C       37.029     142.015     -82.544
  N       37.789     141.131     -81.670
  C       38.147     141.654     -80.424
  O       37.814     142.798     -80.114
  N       38.915     140.893     -79.584
  C       39.333     139.729     -79.972
  N       40.116     139.037     -79.102
  C       39.002     139.149     -81.290
  C       38.232     139.896     -82.080
  O       37.884     138.754     -87.492
  O       35.566     138.380     -86.422
  H       39.331     143.319     -82.460
  H       36.073     137.701     -85.918
  H       39.380     138.177     -81.568
  H       37.938     139.555     -83.067
  H       36.556     142.792     -81.930
  H       38.502     141.857     -84.125
  H       37.223     143.190     -85.624
  H       34.748     142.631     -84.231
  H       40.323     139.474     -78.211
  H       34.753     140.444     -85.432
  H       40.518     138.135     -79.302
  H       35.176     141.811     -86.500
  P       36.718     145.637     -85.217
  C       34.432     146.780     -84.766
  O       35.319     146.232     -85.731
  O       37.315     144.889     -86.500
  O       37.677     146.640     -84.670
  H       38.269     145.080     -86.580
  H       33.548     147.134     -85.254
  H       34.911     147.593     -84.262
  H       34.168     146.025     -84.055

 6  7  8  9  10  11  12  13  14  15  16  26  30  31  32  33  35 0
 6-311+G(2d,p)
 ****
 37  38 0
 6-311+G(2d,p)
 ****
 1  2  3  4  5  17  18  19  20  21  22  23  24  25 0
 3-21G
 ****
 27  28  29  34  36  39  40  41  42  43  44  45  46 0
 3-21G
 ****


