%nproc=1
%NoSave
%Mem=1900MB
#P OB98/GEN NMR

erre ene a

0 1
  C     -130.936     -14.581      -1.465
  O     -132.146     -14.401      -0.745
  P     -132.174     -14.475       0.859
  C     -131.314     -16.220       2.564
  O     -131.679     -15.959       1.214
  C     -131.286     -17.726       2.811
  O     -132.620     -18.260       2.702
  C     -130.441     -18.513       1.817
  O     -129.057     -18.374       2.098
  C     -131.010     -19.916       2.001
  O     -130.455     -20.530       3.175
  C     -132.509     -19.622       2.222
  N     -133.311     -19.823       1.018
  C     -133.559     -21.151       0.650
  O     -133.126     -22.087       1.318
  N     -134.330     -21.390      -0.463
  C     -134.793     -20.396      -1.159
  N     -135.607     -20.694      -2.211
  C     -134.510     -18.986      -0.838
  C     -133.775     -18.775       0.256
  O     -133.473     -14.085       1.483
  O     -130.938     -13.578       1.326
  H     -129.497     -20.638       3.008
  H     -131.165     -12.621       1.443
  H     -134.907     -18.193      -1.455
  H     -133.540     -17.766       0.572
  H     -132.907     -20.259       3.022
  H     -130.818     -20.581       1.151
  H     -130.635     -18.169       0.792
  H     -130.929     -17.899       3.836
  H     -135.914     -21.656      -2.288
  H     -132.061     -15.763       3.222
  H     -136.224     -19.998      -2.613
  H     -130.338     -15.767       2.769
  P     -128.036     -18.451       0.862
  C     -127.544     -20.210      -0.981
  O     -128.376     -19.824       0.099
  O     -126.625     -18.721       1.566
  O     -128.016     -17.230       0.001
  H     -126.105     -17.896       1.613
  H     -127.757     -21.254      -1.225
  H     -126.490     -20.119      -0.710
  H     -127.760     -19.594      -1.858
  H     -131.129     -14.495      -2.514
  H     -130.536     -15.551      -1.254
  H     -130.230     -13.833      -1.170

 3  4  5  6  7  8  9  10  11  12  13  23  27  28  29  30  32 0
 6-311+G(2d,p)
 ****
 34  35 0
 6-311+G(2d,p)
 ****
 1  2  14  15  16  17  18  19  20  21  22  24  25  26 0
 3-21G
 ****
 31  33  36  37  38  39  40  41  42  43  44  45  46 0
 3-21G
 ****


