%nproc=1
%NoSave
%Mem=1900MB
#P OB98/GEN NMR

erre ene a

0 1
  C     -415.989     367.884    -393.232
  O     -415.842     366.517    -393.556
  H     -416.652     368.003    -392.369
  H     -415.006     368.292    -392.977
  H     -416.389     368.431    -394.086
  P     -417.196     365.707    -393.851
  C     -417.016     365.824    -396.437
  O     -417.730     366.229    -395.273
  C     -417.777     364.726    -397.170
  O     -419.053     365.238    -397.637
  C     -417.088     364.193    -398.418
  O     -416.058     363.264    -398.101
  C     -418.258     363.516    -399.129
  O     -418.490     362.221    -398.541
  C     -419.431     364.454    -398.798
  N     -420.489     364.880    -403.813
  C     -420.204     363.813    -403.042
  N     -419.924     363.764    -401.720
  C     -419.976     364.999    -401.186
  C     -420.253     366.184    -401.852
  C     -420.517     366.100    -403.220
  N     -420.800     367.199    -404.010
  N     -420.229     367.251    -400.974
  C     -419.937     366.726    -399.801
  N     -419.764     365.367    -399.876
  O     -418.245     366.339    -392.818
  O     -417.108     364.227    -393.708
  H     -418.517     362.355    -397.575
  H     -418.848     365.634    -392.511
  H     -420.205     362.852    -403.551
  H     -419.840     367.285    -398.877
  H     -420.334     363.892    -398.535
  H     -418.086     363.373    -400.192
  H     -416.710     365.016    -399.050
  H     -417.980     363.916    -396.459
  H     -416.033     365.441    -396.144
  H     -421.163     367.052    -404.932
  H     -420.816     368.114    -403.556
  H     -416.886     366.693    -397.089
  P     -414.735     363.277    -399.013
  C     -413.013     364.094    -397.233
  O     -413.793     364.423    -398.381
  O     -415.246     363.943    -400.382
  O     -414.098     361.962    -399.239
  H     -414.673     363.660    -401.117
  H     -412.444     364.949    -396.931
  H     -412.349     363.290    -397.472
  H     -413.661     363.797    -396.435

 6  7  8  9  10  11  12  13  14  15  25  28  32  33  34  35 0
 6-311+G(2d,p)
 ****
 36  39  40 0
 6-311+G(2d,p)
 ****
 1  2  3  4  5  16  17  18  19  20  21  22  23  24 0
 3-21G
 ****
 26  27  29  30  31  37  38  41  42  43  44  45  46  47  48 0
 3-21G
 ****


