%nproc=1
%NoSave
%Mem=1900MB
#P OB98/GEN NMR

erre ene a

0 1
  C      898.711     326.163     -65.410
  O      897.445     325.614     -65.734
  H      898.697     327.249     -65.527
  H      898.939     325.921     -64.361
  H      899.485     325.728     -66.051
  P      896.918     325.848     -67.235
  C      894.991     327.380     -66.400
  O      896.152     327.259     -67.214
  C      894.484     328.821     -66.437
  O      895.446     329.702     -65.804
  C      894.281     329.373     -67.846
  O      893.043     328.971     -68.402
  C      894.296     330.873     -67.564
  O      893.022     331.268     -66.985
  C      895.407     330.985     -66.502
  N      898.684     334.682     -67.836
  C      897.438     334.730     -67.310
  N      896.623     333.692     -66.984
  C      897.236     332.508     -67.249
  C      898.485     332.317     -67.782
  C      899.239     333.479     -68.078
  N      900.513     333.430     -68.615
  N      898.750     330.965     -67.957
  C      897.660     330.363     -67.492
  N      896.713     331.251     -67.068
  O      895.724     324.785     -67.379
  O      897.946     325.701     -68.310
  H      893.118     332.206     -66.730
  H      895.548     324.616     -68.327
  H      897.039     335.719     -67.127
  H      897.525     329.299     -67.431
  H      895.208     331.749     -65.749
  H      894.449     331.474     -68.452
  H      895.125     329.136     -68.503
  H      893.548     328.870     -65.857
  H      895.245     327.114     -65.370
  H      900.888     334.305     -68.962
  H      900.865     332.536     -68.948
  H      894.213     326.694     -66.779
  P      892.767     329.365     -69.943
  C      890.489     330.550     -69.574
  O      891.857     330.691     -69.897
  O      891.757     328.234     -70.430
  O      893.992     329.437     -70.792
  H      891.819     328.083     -71.392
  H      890.019     331.511     -69.583
  H      890.395     330.117     -68.600
  H      890.016     329.915     -70.294

 6  7  8  9  10  11  12  13  14  15  25  28  32  33  34  35 0
 6-311+G(2d,p)
 ****
 36  39  40 0
 6-311+G(2d,p)
 ****
 1  2  3  4  5  16  17  18  19  20  21  22  23  24 0
 3-21G
 ****
 26  27  29  30  31  37  38  41  42  43  44  45  46  47 0
 3-21G
 ****
 48 0
 3-21G
 ****


