%nproc=1
%NoSave
%Mem=1900MB
#P OB98/GEN NMR

erre ene a

0 1
  C      276.597    -640.289     400.730
  O      275.423    -639.854     400.074
  P      274.007    -640.502     400.462
  C      271.544    -639.763     400.517
  O      272.894    -639.352     400.333
  C      270.605    -638.557     400.432
  O      270.876    -637.636     401.516
  C      270.744    -637.746     399.156
  O      270.117    -638.397     398.067
  C      270.100    -636.431     399.575
  O      268.667    -636.516     399.471
  C      270.530    -636.318     401.040
  N      272.053    -631.461     400.738
  C      270.921    -632.079     400.328
  N      270.607    -633.381     400.411
  C      271.616    -634.083     400.968
  C      272.846    -633.594     401.395
  C      273.035    -632.206     401.286
  N      274.159    -631.557     401.763
  N      273.625    -634.626     401.873
  C      272.894    -635.712     401.721
  N      271.651    -635.420     401.237
  O      273.981    -641.253     401.747
  O      273.674    -641.465     399.235
  H      268.459    -636.707     398.537
  H      273.600    -642.380     399.553
  H      270.165    -631.429     399.897
  H      273.209    -636.712     401.964
  H      269.712    -635.958     401.681
  H      270.415    -635.588     398.947
  H      271.808    -637.574     398.939
  H      269.572    -638.923     400.553
  H      271.454    -640.240     401.498
  H      274.138    -630.542     401.759
  H      274.753    -632.041     402.427
  H      271.284    -640.501     399.747
  P      270.350    -637.873     396.578
  C      270.561    -638.944     394.256
  O      270.540    -639.174     395.647
  O      271.405    -636.826     396.417
  O      268.915    -637.330     396.138
  H      269.022    -636.582     395.521
  H      269.539    -638.787     393.885
  H      270.988    -639.826     393.757
  H      271.182    -638.071     394.014
  H      277.439    -639.752     400.347
  H      276.734    -641.336     400.559
  H      276.506    -640.108     401.781

 3  4  5  6  7  8  9  10  11  12  22  25  29  30  31  32 0
 6-311+G(2d,p)
 ****
 33  36  37 0
 6-311+G(2d,p)
 ****
 1  2  13  14  15  16  17  18  19  20  21  23  24  26 0
 3-21G
 ****
 27  28  34  35  38  39  40  41  42  43  44  45  46  47  48 0
 3-21G
 ****


