%nproc=1
%NoSave
%Mem=1900MB
#P OB98/GEN NMR

erre ene a

0 1
  C      112.832     -77.752     -41.338
  O      113.879     -78.603     -40.918
  H      112.224     -78.261     -42.088
  H      112.202     -77.517     -40.476
  H      113.229     -76.819     -41.748
  P      115.091     -78.835     -41.943
  C      117.662     -78.712     -41.606
  O      116.406     -79.059     -41.044
  C      118.527     -77.988     -40.578
  O      118.012     -76.636     -40.411
  C      118.554     -78.654     -39.193
  O      119.878     -78.544     -38.663
  C      117.619     -77.785     -38.371
  O      117.905     -77.835     -36.978
  C      117.856     -76.415     -38.998
  N      115.739     -73.512     -35.401
  C      116.965     -74.067     -35.507
  N      117.469     -74.785     -36.530
  C      116.589     -74.850     -37.544
  C      115.307     -74.330     -37.586
  C      114.876     -73.645     -36.436
  N      113.606     -73.136     -36.290
  N      114.694     -74.656     -38.780
  C      115.581     -75.380     -39.434
  N      116.740     -75.526     -38.725
  O      115.303     -77.372     -42.560
  O      114.854     -79.859     -43.001
  H      117.466     -77.081     -36.538
  H      114.719     -77.255     -43.331
  H      117.625     -73.925     -34.654
  H      115.425     -75.844     -40.397
  H      118.765     -75.929     -38.621
  H      116.585     -78.114     -38.523
  H      118.247     -79.706     -39.203
  H      119.543     -77.895     -40.980
  H      117.499     -78.049     -42.463
  H      113.354     -72.756     -35.391
  H      112.920     -73.322     -37.006
  H      118.165     -79.619     -41.955
  P      120.956     -79.633     -39.134
  C      123.545     -79.740     -39.392
  O      122.423     -79.058     -38.842
  O      120.852     -79.585     -40.731
  O      120.698     -81.007     -38.607
  H      121.024     -80.466     -41.108
  H      124.444     -79.235     -39.108
  H      123.466     -79.754     -40.459
  H      123.568     -80.744     -39.023

 6  7  8  9  10  11  12  13  14  15  25  28  32  33  34  35 0
 6-311+G(2d,p)
 ****
 36  39  40 0
 6-311+G(2d,p)
 ****
 1  2  3  4  5  16  17  18  19  20  21  22  23  24 0
 3-21G
 ****
 26  27  29  30  31  37  38  41  42  43  44  45  46  47 0
 3-21G
 ****
 48 0
 3-21G
 ****


