%nproc=1
%NoSave
%Mem=1900MB
#P OB98/GEN NMR

erre ene a

0 1
  C     1882.589     -12.876    1281.771
  O     1883.543     -13.478    1280.891
  P     1884.591     -14.507    1281.504
  C     1883.006     -16.534    1280.821
  O     1883.747     -15.864    1281.849
  C     1883.789     -17.730    1280.352
  O     1884.242     -18.537    1281.480
  C     1882.981     -18.721    1279.458
  O     1882.844     -18.237    1278.132
  C     1883.807     -19.989    1279.585
  O     1884.964     -19.933    1278.712
  C     1884.292     -19.924    1281.046
  N     1883.503     -20.786    1281.946
  C     1883.553     -22.161    1281.695
  O     1884.225     -22.611    1280.729
  N     1882.805     -22.959    1282.521
  C     1881.982     -22.504    1283.525
  O     1881.327     -23.277    1284.191
  C     1881.944     -21.078    1283.706
  C     1882.680     -20.250    1282.971
  O     1884.856     -13.836    1282.949
  O     1885.805     -14.708    1280.641
  H     1884.089     -13.306    1283.255
  H     1885.399     -20.806    1278.746
  H     1882.843     -23.929    1282.344
  H     1881.324     -20.659    1284.542
  H     1882.684     -19.210    1283.088
  H     1885.361     -20.213    1281.163
  H     1883.255     -20.883    1279.366
  H     1881.985     -18.886    1279.931
  H     1884.713     -17.416    1279.800
  H     1882.842     -15.851    1279.966
  H     1882.035     -16.839    1281.228
  P     1881.337     -18.218    1277.545
  C     1881.251     -15.589    1277.597
  O     1880.682     -16.772    1278.022
  O     1880.623     -19.343    1278.449
  O     1881.289     -18.450    1276.035
  H     1880.871     -19.278    1279.366
  H     1880.467     -14.827    1277.723
  H     1881.547     -15.625    1276.533
  H     1882.109     -15.329    1278.209
  H     1881.959     -12.214    1281.215
  H     1883.103     -12.325    1282.531
  H     1881.992     -13.639    1282.225

 3  4  5  6  7  8  9  10  11  12  13  24  28  29  30  31  32 0
 6-311+G(2d,p)
 ****
 33  34 0
 6-311+G(2d,p)
 ****
 1  2  14  15  16  17  18  19  20  21  22  23  25  26  27 0
 3-21G
 ****
 35  36  37  38  39  40  41  42  43  44  45 0
 3-21G
 ****


