%nproc=1
%NoSave
%Mem=1900MB
#P OB98/GEN NMR

erre ene a

0 1
  C        7.039    -200.275    -476.865
  O        6.263    -199.120    -477.098
  H        7.669    -200.454    -477.739
  H        6.394    -201.145    -476.717
  H        7.685    -200.136    -475.994
  P        5.241    -198.640    -475.957
  C        7.171    -197.398    -474.753
  O        6.178    -198.406    -474.668
  C        7.601    -196.958    -473.357
  O        6.627    -196.075    -472.762
  C        7.753    -198.091    -472.347
  O        8.910    -198.887    -472.547
  C        7.820    -197.289    -471.061
  O        9.118    -196.681    -470.936
  C        6.723    -196.229    -471.318
  N        5.430    -196.609    -470.753
  C        5.246    -196.365    -469.387
  O        6.144    -195.863    -468.711
  N        4.054    -196.726    -468.802
  C        3.137    -197.304    -469.517
  N        1.979    -197.647    -468.885
  C        3.296    -197.596    -470.954
  C        4.450    -197.228    -471.501
  O        4.049    -199.513    -475.734
  O        4.866    -197.137    -476.358
  H        9.752    -197.402    -470.774
  H        4.227    -196.794    -475.687
  H        2.513    -198.107    -471.495
  H        4.645    -197.413    -472.553
  H        7.017    -195.257    -470.906
  H        7.662    -197.893    -470.167
  H        6.851    -198.716    -472.321
  H        8.531    -196.386    -473.463
  H        1.901    -197.433    -467.899
  H        6.757    -196.555    -475.318
  H        1.244    -198.165    -469.343
  H        8.051    -197.781    -475.280
  P        9.051    -200.209    -471.647
  C        8.804    -202.038    -473.496
  O        8.220    -201.354    -472.398
  O        8.167    -199.866    -470.360
  O       10.452    -200.594    -471.297
  H        8.734    -199.564    -469.622
  H        8.113    -202.763    -473.873
  H        9.698    -202.530    -473.175
  H        9.041    -201.336    -474.268

 6  7  8  9  10  11  12  13  14  15  16  26  30  31  32  33  35 0
 6-311+G(2d,p)
 ****
 37  38 0
 6-311+G(2d,p)
 ****
 1  2  3  4  5  17  18  19  20  21  22  23  24  25 0
 3-21G
 ****
 27  28  29  34  36  39  40  41  42  43  44  45  46 0
 3-21G
 ****


