%nproc=1
%NoSave
%Mem=1900MB
#P OB98/GEN NMR

erre ene a

0 1
  C      -72.869    -324.309    -230.436
  O      -73.286    -325.620    -230.025
  P      -74.565    -326.344    -230.679
  C      -76.315    -325.338    -229.093
  O      -75.724    -326.540    -229.581
  C      -76.826    -325.461    -227.645
  O      -77.597    -326.692    -227.467
  C      -75.731    -325.478    -226.562
  O      -76.319    -324.874    -225.405
  C      -75.523    -326.970    -226.338
  O      -74.879    -327.266    -225.111
  C      -76.960    -327.471    -226.437
  N      -76.580    -332.206    -224.506
  C      -76.648    -330.992    -223.910
  N      -76.784    -329.784    -224.485
  C      -76.900    -329.897    -225.824
  C      -76.865    -331.063    -226.578
  C      -76.688    -332.262    -225.861
  N      -76.569    -333.496    -226.468
  N      -76.984    -330.784    -227.923
  C      -77.081    -329.471    -227.992
  N      -77.042    -328.885    -226.745
  O      -74.236    -327.590    -231.445
  O      -75.175    -325.249    -231.676
  H      -75.421    -326.913    -224.378
  H      -75.393    -325.665    -232.525
  H      -76.563    -331.000    -222.827
  H      -77.167    -328.889    -228.891
  H      -77.507    -327.298    -225.501
  H      -74.890    -327.370    -227.148
  H      -74.828    -324.951    -226.859
  H      -77.524    -324.633    -227.471
  H      -77.144    -325.065    -229.751
  H      -76.345    -334.289    -225.880
  H      -76.516    -333.543    -227.473
  H      -75.569    -324.533    -229.142
  P      -75.677    -323.563    -224.721
  C      -74.375    -324.539    -222.736
  O      -75.567    -323.890    -223.149
  O      -76.362    -322.278    -225.054
  O      -74.154    -323.566    -225.208
  H      -73.777    -322.673    -225.092
  H      -74.435    -325.603    -223.000
  H      -74.285    -324.447    -221.648
  H      -73.492    -324.095    -223.208
  H      -72.004    -324.019    -229.878
  H      -73.660    -323.611    -230.257
  H      -72.633    -324.321    -231.480

 3  4  5  6  7  8  9  10  11  12  22  25  29  30  31  32 0
 6-311+G(2d,p)
 ****
 33  36  37 0
 6-311+G(2d,p)
 ****
 1  2  13  14  15  16  17  18  19  20  21  23  24  26 0
 3-21G
 ****
 27  28  34  35  38  39  40  41  42  43  44  45  46  47  48 0
 3-21G
 ****


