%nproc=1
%NoSave
%Mem=1900MB
#P OB98/GEN NMR

erre ene a

0 1
  C      -57.318    -391.019     -24.298
  O      -58.245    -392.059     -24.044
  H      -57.217    -390.905     -25.382
  H      -56.337    -391.271     -23.884
  H      -57.675    -390.075     -23.881
  P      -58.568    -392.434     -22.518
  C      -57.592    -394.226     -20.916
  O      -57.414    -393.477     -22.115
  C      -57.414    -395.717     -21.195
  O      -56.050    -396.029     -21.547
  C      -57.725    -396.629     -20.011
  O      -59.107    -396.751     -19.733
  C      -57.115    -397.927     -20.522
  O      -57.984    -398.511     -21.510
  C      -55.808    -397.410     -21.159
  N      -54.665    -397.488     -20.244
  C      -54.122    -398.761     -20.030
  O      -54.599    -399.749     -20.583
  N      -53.059    -398.896     -19.160
  C      -52.602    -397.849     -18.541
  N      -51.559    -398.036     -17.684
  C      -53.158    -396.492     -18.722
  C      -54.175    -396.387     -19.579
  O      -59.971    -392.882     -22.234
  O      -58.135    -391.136     -21.686
  H      -57.527    -399.292     -21.863
  H      -58.323    -391.312     -20.730
  H      -52.755    -395.660     -18.160
  H      -54.637    -395.424     -19.760
  H      -55.570    -397.968     -22.074
  H      -56.971    -398.667     -19.738
  H      -57.168    -396.311     -19.117
  H      -58.038    -395.961     -22.071
  H      -51.200    -398.978     -17.581
  H      -58.591    -394.011     -20.528
  H      -51.185    -397.297     -17.106
  H      -56.846    -393.917     -20.176
  P      -59.531    -396.809     -18.180
  C      -58.725    -398.244     -16.150
  O      -58.780    -398.087     -17.556
  O      -61.066    -397.258     -18.240
  O      -59.325    -395.537     -17.416
  H      -61.654    -396.478     -18.152
  H      -58.192    -399.141     -15.912
  H      -59.719    -398.305     -15.759
  H      -58.222    -397.405     -15.717

 6  7  8  9  10  11  12  13  14  15  16  26  30  31  32  33  35 0
 6-311+G(2d,p)
 ****
 37  38 0
 6-311+G(2d,p)
 ****
 1  2  3  4  5  17  18  19  20  21  22  23  24  25 0
 3-21G
 ****
 27  28  29  34  36  39  40  41  42  43  44  45  46 0
 3-21G
 ****


