%nproc=1
%NoSave
%Mem=1900MB
#P OB98/GEN NMR

erre ene a

0 1
  C     -243.876      48.897      -1.130
  O     -244.648      49.005       0.050
  H     -244.423      49.367      -1.952
  H     -243.708      47.845      -1.375
  H     -242.919      49.408      -1.003
  P     -244.037      48.315       1.364
  C     -244.620      46.108       2.590
  O     -244.540      46.791       1.348
  C     -244.887      44.622       2.367
  O     -246.221      44.415       1.852
  C     -243.928      43.950       1.390
  O     -242.729      43.566       2.040
  C     -244.758      42.759       0.934
  O     -244.715      41.695       1.909
  C     -246.168      43.362       0.850
  N     -246.421      42.355      -4.090
  C     -245.930      41.593      -3.049
  N     -245.402      40.392      -3.374
  N     -245.942      41.974      -1.800
  C     -246.447      43.219      -1.628
  C     -246.961      44.074      -2.576
  C     -246.990      43.614      -3.948
  O     -247.486      44.208      -4.902
  N     -247.394      45.244      -2.007
  C     -247.110      45.110      -0.725
  N     -246.529      43.900      -0.446
  O     -244.884      48.969       2.557
  O     -242.574      48.513       1.570
  H     -245.246      40.946       1.587
  H     -244.291      49.114       3.318
  H     -246.413      41.997      -5.028
  H     -247.313      45.850       0.037
  H     -246.941      42.631       1.111
  H     -244.378      42.337       0.003
  H     -245.102      40.176      -4.314
  H     -243.723      44.599       0.531
  H     -244.976      39.868      -2.620
  H     -244.844      44.130       3.347
  H     -245.435      46.540       3.180
  H     -243.679      46.236       3.134
  P     -241.575      42.888       1.160
  C     -240.826      40.465       0.604
  O     -241.845      41.305       1.126
  O     -240.283      43.029       2.096
  O     -241.345      43.528      -0.166
  H     -239.701      43.732       1.753
  H     -241.148      39.445       0.646
  H     -239.935      40.582       1.185
  H     -240.627      40.735      -0.412

 6  7  8  9  10  11  12  13  14  15  26  29  33  34 0
 6-311+G(2d,p)
 ****
 36  38  39  40  41 0
 6-311+G(2d,p)
 ****
 1  2  3  4  5  16  17  18  19  20  21  22  23  24  25 0
 3-21G
 ****
 27  28  30  31  32  35  37  42  43  44  45  46  47 0
 3-21G
 ****
 48  49 0
 3-21G
 ****


