%nproc=1
%NoSave
%Mem=1900MB
#P OB98/GEN NMR

erre ene a

0 1
  C      981.046    -615.061     464.092
  O      981.138    -613.689     463.743
  P      981.494    -613.232     462.237
  C      979.621    -611.446     462.328
  O      980.139    -612.607     461.664
  C      980.174    -610.190     461.656
  O      979.794    -610.178     460.264
  C      979.638    -608.893     462.235
  O      980.263    -608.583     463.475
  C      979.923    -607.924     461.096
  O      981.323    -607.531     461.132
  C      979.664    -608.799     459.860
  N      978.349    -608.553     459.270
  C      978.263    -607.532     458.320
  O      979.264    -606.870     458.005
  N      977.041    -607.284     457.718
  C      976.010    -607.986     458.038
  N      974.846    -607.743     457.377
  C      976.043    -609.044     459.085
  C      977.227    -609.278     459.641
  O      982.086    -614.329     461.390
  O      982.445    -611.952     462.415
  H      981.445    -606.912     460.387
  H      983.397    -612.177     462.496
  H      975.135    -609.589     459.319
  H      977.335    -610.052     460.386
  H      980.412    -608.621     459.097
  H      979.327    -607.014     461.146
  H      978.542    -608.956     462.399
  H      981.270    -610.213     461.724
  H      974.920    -607.139     456.549
  H      979.964    -611.481     463.369
  H      974.094    -608.409     457.359
  H      978.536    -611.470     462.303
  P      979.361    -607.868     464.606
  C      978.852    -610.065     465.863
  O      978.337    -608.988     465.151
  O      978.462    -606.855     463.769
  O      980.160    -607.168     465.682
  H      978.812    -605.939     463.834
  H      978.022    -610.598     466.360
  H      979.555    -609.736     466.640
  H      979.369    -610.772     465.197
  H      980.802    -615.149     465.130
  H      981.984    -615.541     463.904
  H      980.283    -615.528     463.505

 3  4  5  6  7  8  9  10  11  12  13  23  27  28  29  30  32 0
 6-311+G(2d,p)
 ****
 34  35 0
 6-311+G(2d,p)
 ****
 1  2  14  15  16  17  18  19  20  21  22  24  25  26 0
 3-21G
 ****
 31  33  36  37  38  39  40  41  42  43  44  45  46 0
 3-21G
 ****


