%nproc=1
%NoSave
%Mem=1900MB
#P OB98/GEN NMR

erre ene a

0 1
  C     -349.160    -396.488     745.718
  O     -347.839    -396.474     745.224
  H     -349.763    -397.143     745.084
  H     -349.590    -395.484     745.688
  H     -349.184    -396.873     746.741
  P     -346.747    -395.573     745.982
  C     -346.085    -397.763     747.205
  O     -345.638    -396.633     746.468
  C     -344.896    -398.607     747.648
  O     -344.403    -399.437     746.571
  C     -343.675    -397.813     748.099
  O     -343.826    -397.200     749.370
  C     -342.632    -398.911     748.109
  O     -342.812    -399.745     749.266
  C     -342.989    -399.668     746.809
  N     -342.192    -399.230     745.662
  C     -340.836    -399.574     745.671
  O     -340.353    -400.208     746.612
  N     -340.041    -399.162     744.628
  C     -340.550    -398.447     743.671
  N     -339.719    -398.062     742.665
  C     -341.973    -398.044     743.631
  C     -342.725    -398.471     744.643
  O     -347.273    -394.661     747.042
  O     -345.969    -394.808     744.812
  H     -342.743    -399.166     750.047
  H     -345.287    -394.232     745.228
  H     -342.342    -397.427     742.829
  H     -343.780    -398.206     744.691
  H     -342.857    -400.751     746.939
  H     -341.607    -398.534     748.141
  H     -343.392    -397.068     747.344
  H     -345.245    -399.284     748.434
  H     -338.750    -398.352     742.719
  H     -346.759    -398.342     746.565
  H     -340.014    -397.441     741.921
  H     -346.630    -397.438     748.094
  P     -343.345    -395.673     749.509
  C     -345.629    -394.439     749.183
  O     -344.602    -394.855     750.073
  O     -343.221    -395.195     747.985
  O     -342.081    -395.474     750.277
  H     -342.294    -395.234     747.687
  H     -346.382    -393.910     749.729
  H     -346.064    -395.297     748.715
  H     -345.214    -393.797     748.435

 6  7  8  9  10  11  12  13  14  15  16  26  30  31  32  33  35 0
 6-311+G(2d,p)
 ****
 37  38 0
 6-311+G(2d,p)
 ****
 1  2  3  4  5  17  18  19  20  21  22  23  24  25 0
 3-21G
 ****
 27  28  29  34  36  39  40  41  42  43  44  45  46 0
 3-21G
 ****


