%nproc=1
%NoSave
%Mem=1900MB
#P OB98/GEN NMR

erre ene a

0 1
  C      646.437    -439.823    -344.514
  O      645.288    -440.413    -343.939
  P      644.364    -439.599    -342.896
  C      644.346    -441.698    -341.366
  O      644.638    -440.304    -341.480
  C      644.485    -442.139    -339.921
  O      645.852    -441.961    -339.489
  C      643.623    -441.370    -338.924
  O      642.275    -441.770    -338.992
  C      644.349    -441.675    -337.619
  O      643.978    -442.975    -337.144
  C      645.824    -441.686    -338.062
  N      646.514    -440.435    -337.757
  C      646.818    -440.203    -336.405
  O      646.510    -441.014    -335.537
  N      647.496    -439.051    -336.069
  C      647.820    -438.200    -336.999
  N      648.539    -437.108    -336.609
  C      647.468    -438.373    -338.421
  C      646.832    -439.501    -338.725
  O      642.933    -439.500    -343.269
  O      645.102    -438.192    -342.727
  H      643.050    -442.909    -336.819
  H      644.810    -437.516    -343.388
  H      647.752    -437.635    -339.146
  H      646.561    -439.718    -339.744
  H      646.356    -442.514    -337.579
  H      644.134    -440.943    -336.827
  H      643.684    -440.293    -339.133
  H      644.252    -443.213    -339.856
  H      648.898    -437.115    -335.667
  H      645.057    -442.248    -341.988
  H      649.072    -436.562    -337.281
  H      643.329    -441.876    -341.745
  P      641.218    -441.018    -338.059
  C      640.300    -443.211    -337.018
  O      640.967    -441.984    -336.799
  O      639.856    -441.095    -338.892
  O      641.590    -439.611    -337.721
  H      639.684    -440.250    -339.344
  H      640.417    -443.841    -336.132
  H      640.723    -443.734    -337.881
  H      639.225    -443.027    -337.165
  H      646.906    -440.524    -345.173
  H      647.122    -439.548    -343.740
  H      646.152    -438.951    -345.065

 3  4  5  6  7  8  9  10  11  12  13  23  27  28  29  30  32 0
 6-311+G(2d,p)
 ****
 34  35 0
 6-311+G(2d,p)
 ****
 1  2  14  15  16  17  18  19  20  21  22  24  25  26 0
 3-21G
 ****
 31  33  36  37  38  39  40  41  42  43  44  45  46 0
 3-21G
 ****


