%nproc=1
%NoSave
%Mem=1900MB
#P OB98/GEN NMR

erre ene a

0 1
  C     -882.495    -637.471      91.234
  O     -883.758    -636.876      91.106
  H     -881.994    -637.454      90.262
  H     -882.591    -638.509      91.559
  H     -881.879    -636.913      91.953
  P     -884.655    -636.777      92.447
  C     -884.599    -634.177      92.606
  O     -884.215    -635.428      93.186
  C     -885.582    -633.463      93.525
  O     -884.960    -633.194      94.806
  C     -886.042    -632.108      93.006
  O     -887.037    -632.217      91.984
  C     -886.540    -631.448      94.273
  O     -887.880    -631.855      94.585
  C     -885.570    -632.006      95.340
  N     -884.491    -628.034      98.362
  C     -885.566    -628.867      98.288
  N     -885.764    -629.902      97.462
  C     -884.698    -630.080      96.670
  C     -883.522    -629.333      96.633
  C     -883.440    -628.270      97.533
  N     -882.359    -627.420      97.589
  N     -882.694    -629.808      95.647
  C     -883.318    -630.824      95.117
  N     -884.548    -631.030      95.691
  O     -884.037    -637.942      93.361
  O     -886.125    -636.947      92.239
  H     -888.425    -631.599      93.816
  H     -884.606    -638.724      93.323
  H     -886.365    -628.623      98.993
  H     -882.952    -631.435      94.296
  H     -886.080    -632.285      96.268
  H     -886.521    -630.362      94.198
  H     -885.167    -631.535      92.623
  H     -886.439    -634.128      93.691
  H     -885.071    -634.369      91.624
  H     -883.693    -633.577      92.447
  H     -882.393    -626.638      98.216
  H     -881.631    -627.523      96.893
  P     -886.948    -631.206      90.735
  C     -885.501    -632.888      89.352
  O     -885.608    -631.590      89.937
  O     -886.570    -629.801      91.403
  O     -888.176    -631.128      89.921
  H     -887.003    -629.076      90.910
  H     -884.555    -632.981      88.862
  H     -886.287    -633.024      88.639
  H     -885.581    -633.632      90.117

 6  7  8  9  10  11  12  13  14  15  25  28  32  33  34  35 0
 6-311+G(2d,p)
 ****
 36  37  40 0
 6-311+G(2d,p)
 ****
 1  2  3  4  5  16  17  18  19  20  21  22  23  24 0
 3-21G
 ****
 26  27  29  30  31  38  39 41  42  43  44  45  46  47  48 0
 3-21G
 ****


