%nproc=1
%NoSave
%Mem=1900MB
#P OB98/GEN NMR

erre ene a

0 1
  C     -161.791      59.911    -356.737
  O     -162.665      61.043    -356.857
  P     -163.068      61.829    -355.520
  C     -162.237      64.147    -356.363
  O     -163.327      63.369    -355.891
  C     -162.667      64.999    -357.562
  O     -162.836      64.204    -358.752
  C     -163.998      65.712    -357.359
  O     -163.840      66.908    -356.612
  C     -164.382      66.032    -358.794
  O     -163.664      67.200    -359.243
  C     -163.894      64.789    -359.548
  N     -168.411      63.835    -361.775
  C     -167.649      64.955    -361.718
  N     -166.467      65.135    -361.087
  C     -166.070      64.001    -360.486
  C     -166.737      62.786    -360.459
  C     -167.962      62.724    -361.141
  N     -168.733      61.584    -361.200
  N     -166.027      61.854    -359.732
  C     -164.940      62.491    -359.339
  N     -164.928      63.793    -359.765
  O     -161.694      61.876    -354.701
  O     -164.152      61.168    -354.734
  H     -164.066      67.471    -360.089
  H     -161.876      61.815    -353.743
  H     -168.043      65.820    -362.241
  H     -164.145      62.053    -358.754
  H     -163.471      65.036    -360.530
  H     -165.446      66.251    -358.906
  H     -164.739      65.037    -356.913
  H     -161.880      65.740    -357.754
  H     -161.405      63.496    -356.646
  H     -169.585      61.605    -361.734
  H     -168.393      60.745    -360.753
  H     -161.870      64.777    -355.547
  P     -165.170      67.737    -356.264
  C     -165.006      67.348    -353.702
  O     -164.968      68.273    -354.767
  O     -166.281      66.589    -356.122
  O     -165.544      68.756    -357.284
  H     -167.157      66.942    -356.380
  H     -164.561      67.812    -352.818
  H     -164.442      66.442    -353.944
  H     -166.044      67.083    -353.476
  H     -161.614      59.493    -357.706
  H     -162.246      59.174    -356.108
  H     -160.862      60.222    -356.307

 3  4  5  6  7  8  9  10  11  12  22  25  29  30  31  32 0
 6-311+G(2d,p)
 ****
 33  36  37 0
 6-311+G(2d,p)
 ****
 1  2  13  14  15  16  17  18  19  20  21  23  24  26 0
 3-21G
 ****
 27  28  34  35  38  39  40  41  42  43  44  45  46  47  48 0
 3-21G
 ****


