%nproc=1
%NoSave
%Mem=1900MB
#P OB98/GEN NMR

erre ene a

0 1
  C     -312.095     372.266      59.474
  O     -313.196     371.579      60.039
  H     -311.334     371.550      59.155
  H     -312.437     372.832      58.607
  H     -311.669     372.961      60.205
  P     -312.898     370.654      61.314
  C     -314.344     372.002      62.994
  O     -314.168     370.779      62.295
  C     -315.829     372.258      63.232
  O     -316.452     372.559      61.959
  C     -316.590     371.081      63.870
  O     -317.201     371.487      65.098
  C     -317.687     370.750      62.867
  O     -318.935     370.442      63.482
  C     -317.778     372.015      62.014
  N     -321.833     370.379      59.398
  C     -321.726     370.940      60.622
  N     -320.628     371.452      61.219
  C     -319.561     371.365      60.403
  C     -319.520     370.848      59.120
  C     -320.724     370.318      58.620
  N     -320.824     369.695      57.394
  N     -318.242     370.927      58.598
  C     -317.516     371.450      59.571
  N     -318.265     371.708      60.684
  O     -311.746     371.456      62.089
  O     -312.479     369.258      60.994
  H     -319.113     371.155      64.130
  H     -311.026     370.845      62.327
  H     -322.644     370.973      61.202
  H     -316.446     371.610      59.535
  H     -318.436     372.762      62.465
  H     -317.375     369.887      62.265
  H     -315.944     370.213      64.047
  H     -315.926     373.154      63.857
  H     -313.931     372.827      62.402
  H     -321.690     369.238      57.167
  H     -319.972     369.547      56.863
  H     -313.800     371.952      63.942
  P     -317.926     370.336      65.958
  C     -316.339     370.343      68.024
  O     -317.626     370.651      67.508
  O     -317.026     369.051      65.661
  O     -319.358     370.121      65.603
  H     -317.560     368.238      65.762
  H     -316.297     370.609      69.060
  H     -315.597     370.894      67.484
  H     -316.153     369.295      67.917

 6  7  8  9  10  11  12  13  14  15  25  28  32  33  34  35 0
 6-311+G(2d,p)
 ****
 36  39  40 0
 6-311+G(2d,p)
 ****
 1  2  3  4  5  16  17  18  19  20  21  22  23  24 0
 3-21G
 ****
 26  27  29  30  31  37  38  41  42  43  44  45  46  47  48 0
 3-21G
 ****


