%nproc=1
%NoSave
%Mem=1900MB
#P OB98/GEN NMR

erre ene a

0 1
  C       93.046     127.937     -79.474
  O       92.172     128.693     -80.286
  H       92.535     127.694     -78.539
  H       93.940     128.521     -79.240
  H       93.330     127.005     -79.969
  P       92.600     129.009     -81.798
  C       93.002     127.616     -83.931
  O       92.836     127.597     -82.519
  C       93.965     126.513     -84.357
  O       95.263     126.729     -83.764
  C       93.539     125.115     -83.922
  O       92.491     124.628     -84.739
  C       94.856     124.364     -84.053
  O       95.106     124.007     -85.422
  C       95.867     125.431     -83.567
  N       96.271     125.247     -82.174
  C       96.969     124.080     -81.880
  O       97.211     123.213     -82.720
  N       97.365     123.931     -80.577
  C       97.064     124.777     -79.549
  O       97.398     124.571     -78.385
  C       96.295     125.976     -79.911
  C       95.940     126.153     -81.185
  O       93.710     129.993     -81.966
  O       91.243     129.532     -82.471
  H       94.447     123.325     -85.657
  H       91.254     130.506     -82.518
  H       97.861     123.086     -80.343
  H       96.034     126.666     -79.120
  H       95.369     127.029     -81.470
  H       96.770     125.407     -84.189
  H       94.872     123.439     -83.478
  H       93.241     125.120     -82.867
  H       94.081     126.562     -85.448
  H       93.409     128.590     -84.224
  H       92.024     127.482     -84.404
  P       91.669     123.322     -84.323
  C       89.779     122.841     -82.662
  O       90.922     123.642     -82.936
  O       92.446     122.049     -84.331
  O       90.466     123.269     -85.378
  H       90.628     122.558     -86.030
  H       89.357     123.131     -81.722
  H       90.067     121.811     -82.621
  H       89.053     122.978     -83.436

 6  7  8  9  10  11  12  13  14  15  16  26  31  32  33  34  35 0
 6-311+G(2d,p)
 ****
 36  37 0
 6-311+G(2d,p)
 ****
 1  2  3  4  5  17  18  19  20  21  22  23  24  25 0
 3-21G
 ****
 27  28  29  30  38  39  40  41  42  43  44  45 0
 3-21G
 ****


