%nproc=1
%NoSave
%Mem=1900MB
#P OB98/GEN NMR

erre ene a

0 1
  C     -938.748     524.629     173.148
  O     -939.136     524.669     171.786
  H     -937.656     524.668     173.199
  H     -939.089     523.699     173.612
  H     -939.158     525.487     173.686
  P     -940.714     524.557     171.499
  C     -942.286     522.745     170.510
  O     -940.953     523.124     170.816
  C     -942.355     522.102     169.132
  O     -942.143     523.084     168.093
  C     -941.344     520.987     168.898
  O     -941.815     519.756     169.417
  C     -941.248     520.988     167.378
  O     -942.354     520.270     166.792
  C     -941.330     522.485     167.047
  N     -938.063     524.712     163.904
  C     -939.240     524.049     163.640
  N     -939.601     523.941     162.336
  N     -940.013     523.529     164.563
  C     -939.506     523.665     165.809
  C     -938.349     524.294     166.209
  C     -937.540     524.913     165.175
  O     -936.523     525.585     165.354
  N     -938.182     524.240     167.570
  C     -939.226     523.544     167.988
  N     -940.053     523.168     166.961
  O     -940.947     525.584     170.292
  O     -941.601     524.877     172.654
  H     -943.186     520.718     167.018
  H     -941.804     526.036     170.419
  H     -937.529     525.119     163.155
  H     -939.430     523.296     169.025
  H     -941.845     522.667     166.098
  H     -940.343     520.483     167.034
  H     -938.930     524.055     161.591
  H     -940.365     521.254     169.324
  H     -940.426     523.387     162.141
  H     -943.379     521.718     168.997
  H     -942.921     523.633     170.537
  H     -942.640     522.043     171.269
  P     -940.871     518.464     169.254
  C     -940.946     516.262     167.887
  O     -941.456     517.574     168.049
  O     -941.238     517.602     170.564
  O     -939.408     518.756     169.198
  H     -940.504     517.663     171.210
  H     -941.425     515.794     167.052
  H     -941.137     515.693     168.773
  H     -939.891     516.308     167.714

 6  7  8  9  10  11  12  13  14  15  26  29  33  34 0
 6-311+G(2d,p)
 ****
 36  38  39  40  41 0
 6-311+G(2d,p)
 ****
 1  2  3  4  5  16  17  18  19  20  21  22  23  24  25 0
 3-21G
 ****
 27  28  30  31  32  35  37  42  43  44  45  46  47 0
 3-21G
 ****
 48  49 0
 3-21G
 ****


