%nproc=1
%NoSave
%Mem=1900MB
#P OB98/GEN NMR

erre ene a

0 1
  C      104.850     589.187     346.261
  O      105.595     588.362     345.380
  H      104.028     589.646     345.700
  H      105.485     589.985     346.659
  H      104.432     588.604     347.083
  P      106.769     587.455     345.980
  C      108.678     587.805     347.679
  O      107.733     588.422     346.813
  C      110.025     588.545     347.582
  O      109.811     589.955     347.433
  C      110.908     588.362     348.815
  O      111.514     587.088     348.830
  C      111.870     589.528     348.639
  O      112.910     589.199     347.703
  C      110.938     590.627     348.060
  N      110.489     591.581     349.074
  C      111.455     592.452     349.578
  O      112.641     592.426     349.228
  N      111.021     593.354     350.520
  C      109.776     593.381     351.082
  O      109.462     594.143     351.985
  C      108.804     592.424     350.536
  C      109.203     591.582     349.579
  O      107.463     586.567     344.999
  O      106.038     586.604     347.124
  H      113.421     588.467     348.104
  H      105.908     585.686     346.818
  H      111.706     593.976     350.900
  H      107.799     592.420     350.948
  H      108.492     590.862     349.157
  H      111.450     591.183     347.265
  H      112.358     589.811     349.570
  H      110.321     588.534     349.719
  H      110.543     588.176     346.683
  H      108.807     586.769     347.377
  H      108.298     587.839     348.711
  P      111.890     586.407     350.229
  C      113.817     586.539     351.929
  O      113.220     587.120     350.779
  O      111.920     584.899     350.234
  O      110.764     586.950     351.229
  H      110.258     586.193     351.600
  H      114.689     587.097     352.199
  H      114.093     585.528     351.715
  H      113.119     586.554     352.740

 6  7  8  9  10  11  12  13  14  15  16  26  31  32  33  34  35 0
 6-311+G(2d,p)
 ****
 36  37 0
 6-311+G(2d,p)
 ****
 1  2  3  4  5  17  18  19  20  21  22  23  24  25 0
 3-21G
 ****
 27  28  29  30  38  39  40  41  42  43  44  45 0
 3-21G
 ****


