%nproc=1
%NoSave
%Mem=1900MB
#P OB98/GEN NMR

erre ene a

0 1
  C     -538.511    -178.957     886.303
  O     -537.342    -178.981     887.093
  H     -539.364    -179.250     886.917
  H     -538.427    -179.655     885.460
  H     -538.688    -177.948     885.917
  P     -535.931    -178.732     886.378
  C     -534.699    -180.043     888.254
  O     -534.986    -179.936     886.859
  C     -534.063    -181.393     888.564
  O     -535.030    -182.460     888.386
  C     -532.894    -181.731     887.650
  O     -531.744    -180.994     888.006
  C     -532.805    -183.232     887.829
  O     -532.128    -183.565     889.046
  C     -534.309    -183.633     887.918
  N     -534.845    -184.100     886.660
  C     -534.828    -185.488     886.462
  O     -534.385    -186.231     887.326
  N     -535.299    -185.985     885.264
  C     -535.755    -185.183     884.352
  N     -536.197    -185.745     883.193
  C     -535.804    -183.714     884.512
  C     -535.325    -183.248     885.670
  O     -535.320    -177.368     886.537
  O     -536.220    -179.092     884.842
  H     -532.163    -184.546     889.120
  H     -536.524    -178.294     884.349
  H     -536.192    -183.084     883.735
  H     -535.339    -182.186     885.881
  H     -534.457    -184.413     888.675
  H     -532.275    -183.718     886.999
  H     -533.174    -181.532     886.600
  H     -533.750    -181.394     889.621
  H     -536.136    -186.758     883.106
  H     -535.663    -179.940     888.785
  H     -536.656    -185.227     882.450
  H     -534.040    -179.227     888.583
  P     -531.003    -180.045     886.937
  C     -529.111    -179.937     888.705
  O     -529.435    -180.125     887.326
  O     -531.570    -178.672     886.799
  O     -531.073    -180.911     885.583
  H     -531.991    -180.903     885.194
  H     -528.052    -180.012     888.836
  H     -529.597    -180.689     889.291
  H     -529.442    -178.970     889.020

 6  7  8  9  10  11  12  13  14  15  16  26  30  31  32  33  35 0
 6-311+G(2d,p)
 ****
 37  38 0
 6-311+G(2d,p)
 ****
 1  2  3  4  5  17  18  19  20  21  22  23  24  25 0
 3-21G
 ****
 27  28  29  34  36  39  40  41  42  43  44  45  46 0
 3-21G
 ****


