%nproc=1
%NoSave
%Mem=1900MB
#P OB98/GEN NMR

erre ene a

0 1
  C     -116.904     230.249     148.134
  O     -117.959     229.335     147.913
  H     -116.029     229.694     148.485
  H     -117.184     230.977     148.900
  H     -116.641     230.765     147.206
  P     -119.367     229.904     147.393
  C     -121.203     231.345     148.525
  O     -120.041     230.547     148.706
  C     -121.924     231.534     149.858
  O     -122.501     230.297     150.327
  C     -121.031     231.997     151.009
  O     -120.647     233.359     150.921
  C     -121.960     231.736     152.180
  O     -122.974     232.758     152.233
  C     -122.562     230.367     151.780
  N     -121.844     229.240     152.381
  C     -121.961     229.087     153.764
  O     -122.635     229.876     154.428
  N     -121.291     228.055     154.379
  C     -120.545     227.261     153.673
  N     -119.894     226.262     154.335
  C     -120.373     227.400     152.213
  C     -121.047     228.393     151.640
  O     -120.228     228.939     146.639
  O     -118.987     231.213     146.554
  H     -122.526     233.582     152.502
  H     -119.828     231.598     146.199
  H     -119.719     226.730     151.677
  H     -120.969     228.563     150.567
  H     -123.622     230.306     152.061
  H     -121.449     231.734     153.144
  H     -120.153     231.350     151.111
  H     -122.753     232.233     149.687
  H     -120.030     226.196     155.332
  H     -121.851     230.845     147.797
  H     -119.233     225.644     153.879
  H     -120.927     232.329     148.138
  P     -119.070     233.678     150.999
  C     -117.227     233.248     152.803
  O     -118.608     233.305     152.491
  O     -119.025     235.276     150.963
  O     -118.242     233.050     149.923
  H     -118.823     235.593     150.065
  H     -117.105     232.987     153.833
  H     -116.781     234.203     152.621
  H     -116.753     232.510     152.190

 6  7  8  9  10  11  12  13  14  15  16  26  30  31  32  33  35 0
 6-311+G(2d,p)
 ****
 37  38 0
 6-311+G(2d,p)
 ****
 1  2  3  4  5  17  18  19  20  21  22  23  24  25 0
 3-21G
 ****
 27  28  29  34  36  39  40  41  42  43  44  45  46 0
 3-21G
 ****


