%nproc=1
%NoSave
%Mem=1900MB
#P OB98/GEN NMR

erre ene a

0 1
  C     -426.009     -58.910    -465.018
  O     -426.261     -60.090    -464.281
  H     -425.582     -58.160    -464.343
  H     -426.935     -58.513    -465.442
  H     -425.287     -59.106    -465.816
  P     -426.995     -61.306    -465.020
  C     -425.400     -63.211    -464.312
  O     -425.862     -62.384    -465.369
  C     -423.959     -62.847    -463.924
  O     -423.938     -61.480    -463.427
  C     -423.369     -63.745    -462.822
  O     -421.954     -63.809    -463.038
  C     -423.685     -62.935    -461.577
  O     -422.956     -63.390    -460.467
  C     -423.396     -61.519    -462.087
  N     -423.966     -60.490    -461.236
  C     -423.104     -59.916    -460.298
  O     -421.937     -60.293    -460.217
  N     -423.596     -58.952    -459.453
  C     -424.856     -58.637    -459.496
  N     -425.283     -57.684    -458.626
  C     -425.813     -59.264    -460.435
  C     -425.306     -60.173    -461.269
  O     -427.877     -60.934    -466.165
  O     -427.829     -62.020    -463.852
  H     -423.117     -62.823    -459.679
  H     -428.775     -61.803    -463.940
  H     -426.852     -58.984    -460.419
  H     -425.925     -60.689    -461.992
  H     -422.313     -61.349    -462.164
  H     -424.743     -63.033    -461.317
  H     -423.795     -64.751    -462.812
  H     -423.336     -62.868    -464.826
  H     -424.595     -57.291    -457.996
  H     -425.439     -64.248    -464.664
  H     -426.242     -57.377    -458.558
  H     -426.051     -63.111    -463.439
  P     -421.144     -65.191    -463.117
  C     -419.539     -65.382    -465.127
  O     -420.872     -65.556    -464.652
  O     -421.760     -66.299    -462.328
  O     -419.685     -64.848    -462.550
  H     -419.318     -65.647    -462.122
  H     -419.489     -65.658    -466.160
  H     -418.875     -66.000    -464.560
  H     -419.252     -64.357    -465.018

 6  7  8  9  10  11  12  13  14  15  16  26  30  31  32  33  35 0
 6-311+G(2d,p)
 ****
 37  38 0
 6-311+G(2d,p)
 ****
 1  2  3  4  5  17  18  19  20  21  22  23  24  25 0
 3-21G
 ****
 27  28  29  34  36  39  40  41  42  43  44  45  46 0
 3-21G
 ****


