%nproc=1
%NoSave
%Mem=1900MB
#P OB98/GEN NMR

erre ene a

0 1
  C      -29.507    -898.890    -314.299
  O      -30.609    -897.970    -314.245
  P      -32.052    -898.550    -313.851
  C      -32.568    -898.980    -316.379
  O      -33.009    -898.430    -315.134
  C      -33.695    -898.930    -317.408
  O      -34.808    -899.750    -317.035
  C      -34.283    -897.540    -317.622
  O      -33.481    -896.760    -318.503
  C      -35.611    -897.870    -318.271
  O      -35.422    -898.160    -319.674
  C      -36.023    -899.150    -317.520
  N      -40.916    -898.790    -316.052
  C      -40.355    -899.010    -317.263
  N      -39.044    -899.080    -317.582
  C      -38.285    -898.900    -316.477
  C      -38.719    -898.660    -315.188
  C      -40.105    -898.610    -314.990
  N      -40.679    -898.390    -313.751
  N      -37.647    -898.520    -314.329
  C      -36.584    -898.690    -315.089
  N      -36.919    -898.910    -316.404
  O      -32.629    -897.450    -312.857
  O      -31.998    -899.900    -313.212
  H      -34.578    -898.640    -319.753
  H      -33.181    -897.880    -312.170
  H      -41.049    -899.150    -318.085
  H      -35.560    -898.650    -314.749
  H      -36.513    -899.870    -318.180
  H      -36.328    -897.050    -318.211
  H      -34.442    -897.030    -316.661
  H      -33.302    -899.310    -318.364
  H      -32.232    -900.000    -316.235
  H      -41.681    -898.390    -313.683
  H      -40.077    -898.280    -312.949
  H      -31.694    -898.410    -316.720
  P      -32.356    -895.820    -317.845
  C      -34.243    -894.300    -316.902
  O      -33.051    -894.390    -317.667
  O      -31.323    -895.610    -319.051
  O      -31.708    -896.400    -316.634
  H      -30.416    -895.480    -318.695
  H      -34.400    -893.250    -316.626
  H      -34.163    -894.890    -315.990
  H      -35.089    -894.640    -317.495
  H      -28.616    -898.364    -314.573
  H      -29.711    -899.648    -315.026
  H      -29.373    -899.343    -313.339

 3  4  5  6  7  8  9  10  11  12  22  25  29  30  31  32 0
 6-311+G(2d,p)
 ****
 33  36  37 0
 6-311+G(2d,p)
 ****
 1  2  13  14  15  16  17  18  19  20  21  23  24  26 0
 3-21G
 ****
 27  28  34  35  38  39  40  41  42  43  44  45  46  47  48 0
 3-21G
 ****


