%nproc=1
%NoSave
%Mem=1900MB
#P OB98/GEN NMR

erre ene a

0 1
  C        5.052    -239.199    -217.668
  O        4.032    -238.209    -217.498
  P        3.949    -237.051    -218.608
  C        5.576    -235.323    -219.648
  O        5.323    -236.213    -218.570
  C        6.833    -234.476    -219.386
  O        6.693    -233.718    -218.151
  C        8.117    -235.301    -219.258
  O        9.192    -234.511    -219.789
  C        8.301    -235.425    -217.759
  O        9.646    -235.760    -217.422
  C        7.828    -234.045    -217.309
  N        9.339    -232.661    -212.629
  C        9.926    -232.550    -213.841
  N        9.468    -232.965    -215.041
  C        8.239    -233.508    -214.911
  C        7.516    -233.696    -213.745
  C        8.116    -233.244    -212.560
  N        7.526    -233.376    -211.317
  N        6.320    -234.331    -214.015
  C        6.324    -234.527    -215.315
  N        7.450    -234.019    -215.908
  O        2.873    -236.032    -217.997
  O        3.534    -237.538    -219.958
  H        9.713    -235.802    -216.444
  H        2.038    -236.092    -218.500
  H       10.905    -232.072    -213.846
  H        5.552    -235.032    -215.878
  H        8.592    -233.268    -217.448
  H        7.642    -236.212    -217.369
  H        8.085    -236.271    -219.763
  H        6.936    -233.751    -220.203
  H        4.724    -234.658    -219.795
  H        8.039    -233.051    -210.509
  H        6.640    -233.854    -211.247
  H        5.675    -235.899    -220.576
  P        9.821    -235.005    -221.179
  C       11.457    -236.896    -221.870
  O       10.671    -236.326    -220.846
  O       10.942    -233.904    -221.500
  O        8.831    -235.136    -222.291
  H       11.104    -233.859    -222.460
  H       12.407    -237.229    -221.435
  H       11.670    -236.191    -222.677
  H       10.941    -237.765    -222.279
  H        4.999    -239.907    -216.867
  H        6.012    -238.726    -217.663
  H        4.907    -239.704    -218.600

 3  4  5  6  7  8  9  10  11  12  22  25  29  30  31  32 0
 6-311+G(2d,p)
 ****
 33  36  37 0
 6-311+G(2d,p)
 ****
 1  2  13  14  15  16  17  18  19  20  21  23  24  26 0
 3-21G
 ****
 27  28  34  35  38  39  40  41  42  43  44  45  46  47  48 0
 3-21G
 ****


