%nproc=1
%NoSave
%Mem=1900MB
#P OB98/GEN NMR

erre ene a

0 1
  C        5.291      -9.250     -48.056
  O        4.079      -9.914     -48.353
  H        6.092      -9.992     -48.005
  H        5.219      -8.749     -47.088
  H        5.537      -8.523     -48.834
  P        2.768      -9.037     -48.636
  C        1.521     -10.829     -47.263
  O        1.688      -9.442     -47.525
  C        1.368     -11.058     -45.761
  O        2.662     -11.035     -45.119
  C        0.539      -9.992     -45.057
  O       -0.842     -10.176     -45.297
  C        0.968     -10.202     -43.614
  O        0.262     -11.304     -43.023
  C        2.468     -10.530     -43.778
  N        3.333      -9.381     -43.516
  C        3.358      -8.909     -42.207
  O        2.676      -9.389     -41.303
  N        4.179      -7.838     -41.975
  C        4.870      -7.140     -42.922
  O        5.521      -6.130     -42.675
  C        4.787      -7.668     -44.291
  C        4.037      -8.747     -44.521
  O        2.268      -9.056     -50.041
  O        3.201      -7.559     -48.190
  H       -0.662     -11.009     -42.911
  H        3.362      -7.016     -48.984
  H        4.200      -7.473     -41.037
  H        5.333      -7.150     -45.067
  H        3.958      -9.147     -45.524
  H        2.758     -11.338     -43.095
  H        0.774      -9.328     -42.994
  H        0.858      -8.994     -45.378
  H        0.934     -12.055     -45.607
  H        2.404     -11.364     -47.625
  H        0.639     -11.190     -47.803
  P       -1.778      -8.911     -45.589
  C       -3.758      -9.840     -44.240
  O       -2.816      -8.780     -44.375
  O       -2.388      -8.868     -46.951
  O       -0.804      -7.660     -45.366
  H       -0.738      -7.150     -46.195
  H       -4.395      -9.647     -43.402
  H       -3.238     -10.762     -44.087
  H       -4.349      -9.907     -45.129

 6  7  8  9  10  11  12  13  14  15  16  26  31  32  33  34  35 0
 6-311+G(2d,p)
 ****
 36  37 0
 6-311+G(2d,p)
 ****
 1  2  3  4  5  17  18  19  20  21  22  23  24  25 0
 3-21G
 ****
 27  28  29  30  38  39  40  41  42  43  44  45 0
 3-21G
 ****


