%nproc=1
%NoSave
%Mem=1900MB
#P OB98/GEN NMR

erre ene a

0 1
  C      381.155      48.814    -219.778
  O      382.463      48.277    -219.878
  P      383.379      48.768    -221.104
  C      383.107      46.558    -222.510
  O      382.864      47.955    -222.385
  C      383.724      46.252    -223.878
  O      382.729      46.428    -224.914
  C      384.879      47.164    -224.279
  O      386.083      46.809    -223.610
  C      384.907      46.963    -225.788
  O      385.587      45.741    -226.121
  C      383.405      46.843    -226.118
  N      382.823      48.075    -226.651
  C      383.311      48.500    -227.884
  O      384.176      47.892    -228.519
  N      382.778      49.674    -228.364
  C      381.883      50.474    -227.719
  O      381.473      51.532    -228.176
  C      381.433      49.990    -226.404
  C      381.915      48.836    -225.939
  O      384.776      48.085    -220.719
  O      383.415      50.255    -221.249
  H      384.652      47.279    -220.181
  H      385.570      45.675    -227.098
  H      383.096      49.989    -229.272
  H      380.721      50.602    -225.855
  H      381.606      48.468    -224.967
  H      383.242      46.040    -226.853
  H      385.417      47.781    -226.315
  H      384.627      48.203    -224.047
  H      384.042      45.200    -223.887
  H      382.164      46.018    -222.403
  H      383.783      46.239    -221.711
  P      387.370      47.724    -223.914
  C      388.384      45.815    -225.382
  O      388.011      47.170    -225.273
  O      388.378      47.230    -222.769
  O      387.081      49.189    -223.889
  H      388.368      46.263    -222.651
  H      388.450      45.553    -226.442
  H      387.654      45.153    -224.904
  H      389.361      45.666    -224.921
  H      380.664      48.401    -218.921
  H      380.600      48.569    -220.659
  H      381.213      49.878    -219.678

 3  4  5  6  7  8  9  10  11  12  13  24  28  29  30  31  32 0
 6-311+G(2d,p)
 ****
 33  34 0
 6-311+G(2d,p)
 ****
 1  2  14  15  16  17  18  19  20  21  22  23  25  26  27 0
 3-21G
 ****
 35  36  37  38  39  40  41  42  43  44  45 0
 3-21G
 ****


