%nproc=1
%NoSave
%Mem=1900MB
#P OB98/GEN NMR

erre ene a

0 1
  C     1387.910     802.081     605.499
  O     1388.025     800.780     604.950
  H     1388.808     802.649     605.240
  H     1387.825     802.022     606.582
  H     1387.035     802.594     605.084
  P     1386.724     799.842     604.987
  C     1386.882     800.082     602.401
  O     1386.048     799.947     603.545
  C     1386.024     800.185     601.137
  O     1385.308     798.927     600.971
  C     1384.977     801.301     601.174
  O     1384.862     801.830     599.838
  C     1383.692     800.587     601.527
  O     1382.528     801.248     601.132
  C     1383.913     799.255     600.806
  N     1383.054     798.188     601.318
  C     1381.674     798.344     601.166
  O     1381.142     799.251     600.554
  N     1380.897     797.375     601.740
  C     1381.352     796.304     602.488
  O     1380.603     795.474     602.998
  C     1382.824     796.202     602.609
  C     1383.579     797.140     602.035
  O     1385.720     800.664     605.939
  O     1386.959     798.447     605.459
  H     1385.860     800.393     606.870
  H     1382.265     801.876     601.847
  H     1379.902     797.463     601.646
  H     1383.219     795.374     603.195
  H     1384.670     797.088     602.126
  H     1383.735     799.369     599.728
  H     1383.662     800.412     602.619
  H     1385.202     802.108     601.878
  H     1386.695     800.275     600.267
  H     1387.525     799.210     602.326
  H     1387.487     800.988     602.525
  P     1385.740     803.157     599.523
  C     1386.747     801.575     597.685
  O     1386.953     802.646     598.601
  O     1386.407     803.457     600.932
  O     1384.917     804.272     598.959
  H     1386.607     802.655     601.434
  H     1387.658     801.373     597.161
  H     1385.985     801.847     596.984
  H     1386.443     800.700     598.221

 6  7  8  9  10  11  12  13  14  15  16  27  31  32  33  34  35 0
 6-311+G(2d,p)
 ****
 36  37 0
 6-311+G(2d,p)
 ****
 1  2  3  4  5  17  18  19  20  21  22  23  24  25 0
 3-21G
 ****
 26  28  29  30  38  39  40  41  42  43  44  45 0
 3-21G
 ****


