%nproc=1
%NoSave
%Mem=1900MB
#P OB98/GEN NMR

erre ene a

0 1
  C      188.929     192.849    -206.835
  O      187.774     192.853    -207.651
  H      188.735     193.458    -205.947
  H      189.776     193.280    -207.377
  H      189.167     191.829    -206.521
  P      187.883     192.059    -209.041
  C      187.633     194.193    -210.496
  O      187.085     192.935    -210.125
  C      186.522     195.177    -210.858
  O      185.838     194.753    -212.056
  C      185.461     195.347    -209.778
  O      185.878     196.283    -208.797
  C      184.280     195.842    -210.601
  O      184.404     197.254    -210.884
  C      184.415     195.015    -211.890
  N      179.949     192.873    -212.874
  C      180.328     194.199    -212.909
  N      179.368     195.099    -213.227
  N      181.538     194.618    -212.645
  C      182.381     193.621    -212.285
  C      182.126     192.268    -212.210
  C      180.794     191.816    -212.562
  O      180.419     190.646    -212.631
  N      183.241     191.571    -211.827
  C      184.159     192.502    -211.635
  N      183.682     193.763    -211.896
  O      186.932     190.787    -208.821
  O      189.260     191.640    -209.433
  H      185.253     197.416    -211.332
  H      187.337     190.014    -209.257
  H      179.011     192.605    -213.121
  H      185.180     192.318    -211.323
  H      184.084     195.577    -212.772
  H      183.337     195.715    -210.069
  H      178.383     194.878    -213.155
  H      185.204     194.382    -209.323
  H      179.630     196.076    -213.179
  H      186.997     196.140    -211.084
  H      188.289     194.049    -211.362
  H      188.226     194.590    -209.664
  P      186.290     195.730    -207.352
  C      184.487     196.579    -205.682
  O      185.773     196.783    -206.254
  O      187.880     195.926    -207.333
  O      185.924     194.306    -207.097
  H      188.320     195.059    -207.449
  H      184.284     197.355    -204.974
  H      184.463     195.630    -205.188
  H      183.746     196.598    -206.454

 6  7  8  9  10  11  12  13  14  15  26  29  33  34 0
 6-311+G(2d,p)
 ****
 36  38  39  40  41 0
 6-311+G(2d,p)
 ****
 1  2  3  4  5  16  17  18  19  20  21  22  23  24  25 0
 3-21G
 ****
 27  28  30  31  32  35  37  42  43  44  45  46  47 0
 3-21G
 ****
 48  49 0
 3-21G
 ****


