%nproc=1
%NoSave
%Mem=1900MB
#P OB98/GEN NMR

erre ene a

0 1
  C      213.921    -456.818      86.830
  O      214.105    -458.114      86.255
  P      215.052    -459.173      86.988
  C      213.571    -461.268      86.647
  O      214.808    -460.627      86.357
  C      213.466    -462.585      85.870
  O      213.508    -462.358      84.441
  C      214.630    -463.529      86.146
  O      214.685    -464.110      87.434
  C      214.568    -464.472      84.957
  O      213.608    -465.510      85.159
  C      214.109    -463.520      83.827
  N      215.199    -463.143      82.929
  C      215.782    -464.180      82.207
  O      215.450    -465.358      82.326
  N      216.794    -463.820      81.357
  C      217.290    -462.561      81.190
  O      218.214    -462.298      80.431
  C      216.652    -461.511      82.000
  C      215.653    -461.845      82.820
  O      215.053    -459.119      88.478
  O      216.508    -458.797      86.420
  H      212.758    -465.085      85.378
  H      217.143    -458.857      87.160
  H      217.222    -464.557      80.819
  H      217.027    -460.500      81.899
  H      215.168    -461.087      83.425
  H      213.326    -463.994      83.222
  H      215.530    -464.957      84.777
  H      215.561    -462.954      86.045
  H      212.507    -463.050      86.101
  H      212.742    -460.606      86.388
  H      213.504    -461.438      87.728
  P      215.929    -463.926      88.427
  C      214.524    -464.965      90.342
  O      215.753    -464.949      89.651
  O      216.347    -462.534      88.753
  O      217.108    -464.628      87.585
  H      217.944    -464.163      87.784
  H      214.587    -465.703      91.148
  H      213.711    -465.250      89.670
  H      214.320    -463.987      90.781
  H      213.262    -456.244      86.213
  H      214.866    -456.322      86.900
  H      213.497    -456.918      87.807

 3  4  5  6  7  8  9  10  11  12  13  23  28  29  30  31  32 0
 6-311+G(2d,p)
 ****
 33  34 0
 6-311+G(2d,p)
 ****
 1  2  14  15  16  17  18  19  20  21  22  24  25  26  27 0
 3-21G
 ****
 35  36  37  38  39  40  41  42  43  44  45 0
 3-21G
 ****


