%nproc=1
%NoSave
%Mem=1900MB
#P OB98/GEN NMR

erre ene a

0 1
  C     1709.859    -899.440     492.441
  O     1709.626    -898.040     492.347
  H     1709.680    -899.760     493.478
  H     1710.926    -899.640     492.208
  H     1709.225    -900.000     491.765
  P     1709.386    -897.400     490.904
  C     1706.923    -896.820     491.395
  O     1708.215    -896.310     491.021
  C     1705.944    -895.670     491.678
  O     1705.899    -894.770     490.523
  C     1704.488    -896.170     491.901
  O     1704.206    -896.560     493.242
  C     1703.684    -894.950     491.460
  O     1703.469    -894.040     492.573
  C     1704.549    -894.300     490.388
  N     1700.779    -893.840     486.971
  C     1700.736    -893.570     488.353
  N     1699.542    -893.200     488.835
  N     1701.803    -893.720     489.107
  C     1702.861    -894.210     488.476
  C     1703.004    -894.510     487.150
  C     1701.905    -894.310     486.262
  O     1701.832    -894.490     485.044
  N     1704.258    -895.040     486.854
  C     1704.839    -895.120     488.022
  N     1704.051    -894.560     489.036
  O     1708.681    -898.580     490.081
  O     1710.630    -896.920     490.199
  H     1702.873    -894.480     493.201
  H     1708.935    -898.510     489.150
  H     1699.939    -893.680     486.405
  H     1705.816    -895.530     488.226
  H     1704.567    -893.200     490.503
  H     1702.707    -895.250     491.110
  H     1698.695    -893.150     488.300
  H     1704.257    -897.020     491.207
  H     1699.446    -893.190     489.858
  H     1706.279    -895.080     492.522
  H     1707.075    -897.410     492.292
  H     1706.512    -897.470     490.607
  P     1703.185    -897.700     493.556
  C     1704.083    -897.820     496.029
  O     1702.972    -897.780     495.145
  O     1704.021    -899.050     493.261
  O     1701.888    -897.660     492.814
  H     1703.790    -899.390     492.369
  H     1703.733    -897.872     497.039
  H     1704.673    -896.937     495.900
  H     1704.679    -898.682     495.813

 6  7  8  9  10  11  12  13  14  15  26  29  33  34 0
 6-311+G(2d,p)
 ****
 36  38  39  40  41 0
 6-311+G(2d,p)
 ****
 1  2  3  4  5  16  17  18  19  20  21  22  23  24  25 0
 3-21G
 ****
 27  28  30  31  32  35  37  42  43  44  45  46  47 0
 3-21G
 ****
 48  49 0
 3-21G
 ****


