%nproc=1
%NoSave
%Mem=1900MB
#P OB98/GEN NMR

erre ene a

0 1
  C       38.816      59.753    -161.070
  O       39.617      59.705    -159.907
  H       39.472      59.833    -161.942
  H       38.163      60.630    -161.045
  H       38.215      58.844    -161.166
  P       38.908      59.435    -158.491
  C       36.991      60.515    -157.143
  O       37.879      60.639    -158.245
  C       36.377      61.877    -156.815
  O       37.378      62.755    -156.259
  C       35.814      62.604    -158.029
  O       34.571      62.057    -158.424
  C       35.744      64.030    -157.500
  O       34.571      64.221    -156.696
  C       37.026      64.104    -156.639
  N       38.136      64.769    -157.324
  C       38.217      66.151    -157.177
  O       37.395      66.815    -156.539
  N       39.266      66.758    -157.817
  C       40.148      66.150    -158.661
  O       41.017      66.755    -159.283
  C       40.001      64.694    -158.801
  C       39.017      64.078    -158.134
  O       39.828      59.147    -157.353
  O       37.939      58.193    -158.788
  H       33.816      63.924    -157.237
  H       38.324      57.383    -158.404
  H       39.334      67.759    -157.733
  H       40.691      64.174    -159.449
  H       38.888      63.007    -158.226
  H       36.823      64.648    -155.705
  H       35.710      64.766    -158.303
  H       36.534      62.569    -158.857
  H       35.599      61.725    -156.051
  H       37.556      60.152    -156.274
  H       36.213      59.787    -157.391
  P       34.284      61.767    -159.972
  C       33.640      63.111    -162.070
  O       33.862      63.153    -160.661
  O       33.364      60.621    -160.247
  O       35.736      61.485    -160.585
  H       35.764      60.581    -160.956
  H       33.366      64.085    -162.417
  H       32.852      62.420    -162.286
  H       34.536      62.796    -162.563

 6  7  8  9  10  11  12  13  14  15  16  26  31  32  33  34  35 0
 6-311+G(2d,p)
 ****
 36  37 0
 6-311+G(2d,p)
 ****
 1  2  3  4  5  17  18  19  20  21  22  23  24  25 0
 3-21G
 ****
 27  28  29  30  38  39  40  41  42  43  44  45 0
 3-21G
 ****


