%nproc=1
%NoSave
%Mem=1900MB
#P OB98/GEN NMR

erre ene a

0 1
  C     -295.750     118.656     717.201
  O     -295.749     119.849     717.969
  P     -294.388     120.437     718.589
  C     -294.445     118.628     720.505
  O     -294.308     119.985     720.114
  C     -294.269     118.522     722.026
  O     -292.891     118.798     722.380
  C     -295.151     119.522     722.762
  O     -296.373     118.916     723.156
  C     -294.283     119.934     723.939
  O     -294.344     118.950     724.986
  C     -292.876     119.934     723.295
  N     -292.451     121.127     722.533
  C     -291.911     122.219     723.205
  O     -291.761     122.257     724.420
  N     -291.608     123.315     722.434
  C     -291.737     123.380     721.074
  O     -291.694     124.415     720.420
  C     -292.032     122.117     720.398
  C     -292.393     121.065     721.142
  O     -294.694     121.999     718.676
  O     -293.153     120.137     717.810
  H     -295.293     118.828     725.218
  H     -294.291     122.475     717.917
  H     -291.358     124.154     722.931
  H     -292.001     122.077     719.309
  H     -292.658     120.125     720.663
  H     -292.097     119.736     724.042
  H     -294.630     120.874     724.371
  H     -295.346     120.408     722.142
  H     -294.496     117.490     722.335
  H     -293.702     118.019     719.983
  H     -295.437     118.264     720.211
  P     -297.767     119.517     722.643
  C     -298.275     121.069     724.623
  O     -298.592     119.845     723.983
  O     -298.486     118.697     721.627
  O     -297.348     120.953     722.080
  H     -297.248     120.914     721.094
  H     -299.022     121.252     725.402
  H     -298.292     121.898     723.914
  H     -297.295     120.994     725.097
  H     -296.748     118.437     716.883
  H     -295.380     117.848     717.797
  H     -295.122     118.783     716.344

 3  4  5  6  7  8  9  10  11  12  13  23  28  29  30  31  32 0
 6-311+G(2d,p)
 ****
 33  34 0
 6-311+G(2d,p)
 ****
 1  2  14  15  16  17  18  19  20  21  22  24  25  26  27 0
 3-21G
 ****
 35  36  37  38  39  40  41  42  43  44  45 0
 3-21G
 ****


