%nproc=1
%NoSave
%Mem=1900MB
#P OB98/GEN NMR

erre ene a

0 1
  C      620.808      31.022     -10.652
  O      621.352      32.120     -11.383
  P      622.940      32.263     -11.584
  C      622.963      33.939     -13.516
  O      623.268      33.735     -12.140
  C      621.512      34.381     -13.761
  O      621.160      35.504     -12.915
  C      621.200      34.788     -15.202
  O      619.839      34.402     -15.432
  C      621.330      36.301     -15.149
  O      620.682      36.945     -16.233
  C      620.743      36.590     -13.758
  N      621.179      37.884     -13.234
  C      620.435      39.000     -13.606
  O      619.493      38.885     -14.394
  N      620.796      40.234     -13.123
  C      621.874      40.347     -12.405
  N      622.200      41.600     -11.975
  C      622.742      39.207     -12.058
  C      622.330      38.015     -12.495
  O      623.574      31.153     -12.352
  O      623.511      32.304     -10.084
  H      619.712      36.905     -16.085
  H      624.410      31.922     -10.071
  H      623.647      39.352     -11.483
  H      622.893      37.111     -12.289
  H      619.651      36.584     -13.795
  H      622.389      36.579     -15.180
  H      621.863      34.332     -15.938
  H      620.865      33.543     -13.461
  H      621.594      42.360     -12.260
  H      623.148      33.005     -14.055
  H      623.068      41.811     -11.515
  H      623.653      34.688     -13.923
  P      619.422      33.442     -16.644
  C      617.572      32.118     -15.482
  O      617.868      33.103     -16.452
  O      620.300      32.253     -16.835
  O      619.435      34.390     -17.939
  H      619.463      33.834     -18.741
  H      616.492      32.121     -15.292
  H      618.097      32.312     -14.550
  H      617.857      31.130     -15.858
  H      619.741      31.103     -10.629
  H      621.189      31.036      -9.652
  H      621.086      30.104     -11.127

 3  4  5  6  7  8  9  10  11  12  13  23  27  28  29  30  32 0
 6-311+G(2d,p)
 ****
 34  35 0
 6-311+G(2d,p)
 ****
 1  2  14  15  16  17  18  19  20  21  22  24  25  26 0
 3-21G
 ****
 31  33  36  37  38  39  40  41  42  43  44  45  46 0
 3-21G
 ****


