%nproc=1
%NoSave
%Mem=1900MB
#P OB98/GEN NMR

erre ene a

0 1
  C       74.069    -115.616     -76.363
  O       72.899    -115.664     -77.157
  H       74.054    -116.461     -75.668
  H       74.112    -114.689     -75.786
  H       74.955    -115.701     -76.997
  P       72.547    -114.385     -78.060
  C       70.587    -113.451     -76.669
  O       71.954    -113.293     -77.040
  C       69.979    -112.124     -76.216
  O       68.538    -112.205     -76.191
  C       70.370    -111.709     -74.807
  O       71.732    -111.387     -74.643
  C       69.314    -110.664     -74.484
  O       69.639    -109.380     -75.016
  C       68.077    -111.242     -75.215
  N       67.113    -111.831     -74.292
  C       66.326    -110.934     -73.580
  O       66.427    -109.711     -73.681
  N       65.428    -111.490     -72.711
  C       65.279    -112.821     -72.457
  O       64.468    -113.256     -71.647
  C       66.167    -113.720     -73.211
  C       67.030    -113.192     -74.084
  O       71.666    -114.651     -79.244
  O       73.977    -113.781     -78.445
  H       69.487    -109.424     -75.979
  H       73.904    -113.141     -79.195
  H       64.836    -110.856     -72.195
  H       66.086    -114.782     -73.027
  H       67.695    -113.836     -74.655
  H       67.566    -110.452     -75.779
  H       69.170    -110.542     -73.409
  H       70.181    -112.556     -74.135
  H       70.255    -111.357     -76.948
  H       70.547    -114.167     -75.841
  H       70.024    -113.856     -77.516
  P       72.722    -112.184     -73.681
  C       72.626    -110.450     -71.728
  O       72.393    -111.784     -72.165
  O       74.155    -112.246     -74.098
  O       72.124    -113.683     -73.769
  H       72.881    -114.298     -73.701
  H       72.353    -110.360     -70.697
  H       72.037    -109.775     -72.313
  H       73.663    -110.212     -71.845

 6  7  8  9  10  11  12  13  14  15  16  26  31  32  33  34  35 0
 6-311+G(2d,p)
 ****
 36  37 0
 6-311+G(2d,p)
 ****
 1  2  3  4  5  17  18  19  20  21  22  23  24  25 0
 3-21G
 ****
 27  28  29  30  38  39  40  41  42  43  44  45 0
 3-21G
 ****


