%nproc=1
%NoSave
%Mem=1900MB
#P OB98/GEN NMR

erre ene a

0 1
  C      412.568    -557.322    1079.429
  O      412.720    -555.904    1079.477
  P      412.603    -555.214    1080.930
  C      415.135    -554.725    1081.316
  O      413.979    -555.481    1081.689
  C      415.232    -553.432    1082.099
  O      415.539    -553.683    1083.490
  C      416.306    -552.466    1081.617
  O      415.885    -551.737    1080.479
  C      416.444    -551.551    1082.823
  O      415.428    -550.535    1082.782
  C      416.225    -552.512    1083.991
  N      419.071    -552.220    1088.181
  C      417.844    -551.624    1087.893
  N      417.298    -550.865    1088.879
  N      417.229    -551.766    1086.758
  C      417.890    -552.564    1085.883
  C      419.102    -553.189    1086.052
  C      419.792    -553.014    1087.295
  O      420.897    -553.477    1087.609
  N      419.450    -553.935    1084.941
  C      418.432    -553.762    1084.123
  N      417.460    -552.930    1084.636
  O      411.568    -556.170    1081.702
  O      412.151    -553.800    1080.894
  H      415.529    -550.012    1083.605
  H      411.102    -555.662    1082.374
  H      419.513    -552.065    1089.082
  H      418.337    -554.232    1083.147
  H      415.570    -552.074    1084.761
  H      417.412    -551.016    1082.836
  H      417.667    -550.766    1089.813
  H      417.257    -552.996    1081.435
  H      416.385    -550.474    1088.708
  H      414.227    -552.956    1082.058
  H      415.087    -554.503    1080.238
  H      416.026    -555.357    1081.481
  P      416.968    -551.466    1079.328
  C      416.134    -553.285    1077.640
  O      417.130    -552.874    1078.552
  O      418.334    -551.318    1080.135
  O      416.678    -550.285    1078.456
  H      418.958    -550.732    1079.668
  H      415.789    -552.444    1077.036
  H      415.261    -553.689    1078.206
  H      416.520    -554.066    1076.997
  H      412.666    -557.657    1078.418
  H      411.601    -557.590    1079.802
  H      413.323    -557.782    1080.032

 3  4  5  6  7  8  9  10  11  12  23  26  30  31  33  0
 6-311+G(2d,p)
 ****
 35  36  37  38 0
 6-311+G(2d,p)
 ****
 1  2  13  14  15  16  17  18  19  20  21  22  24  25  27  28  29 0
 3-21G
 ****
 32  34  39  40  41  42  43  44  45  46  47  48  49 0
 3-21G
 ****


