%nproc=1
%NoSave
%Mem=1900MB
#P OB98/GEN NMR

erre ene a

0 1
  C       32.162     192.398      27.815
  O       31.148     193.346      27.533
  P       29.734     192.818      26.992
  C       28.855     192.245      24.584
  O       29.956     192.412      25.457
  C       29.254     191.385      23.381
  O       30.076     192.182      22.484
  C       30.055     190.126      23.739
  O       29.667     189.101      22.816
  C       31.489     190.556      23.487
  O       32.361     189.457      23.274
  C       31.305     191.462      22.266
  N       32.414     192.393      22.059
  C       33.640     191.867      21.665
  O       33.849     190.667      21.501
  N       34.649     192.779      21.488
  C       34.573     194.120      21.725
  O       35.514     194.886      21.567
  C       33.268     194.611      22.187
  C       32.265     193.742      22.320
  O       28.901     194.180      26.919
  O       29.128     191.752      27.840
  H       29.443     194.943      26.657
  H       31.953     188.872      22.610
  H       35.537     192.423      21.165
  H       33.172     195.668      22.401
  H       31.294     194.081      22.660
  H       31.165     190.854      21.365
  H       31.857     191.120      24.352
  H       29.874     189.791      24.764
  H       28.343     191.116      22.833
  H       28.523     193.224      24.227
  H       28.025     191.788      25.132
  P       28.886     187.817      23.391
  C       29.617     185.569      24.514
  O       29.975     186.855      24.062
  O       28.538     187.060      22.019
  O       27.673     188.131      24.203
  H       29.303     186.980      21.428
  H       30.523     184.967      24.617
  H       28.946     185.070      23.810
  H       29.132     185.644      25.490
  H       33.037     192.905      28.164
  H       32.397     191.852      26.925
  H       31.818     191.721      28.568

 3  4  5  6  7  8  9  10  11  12  13  24  28  29  30  31  32 0
 6-311+G(2d,p)
 ****
 33  34 0
 6-311+G(2d,p)
 ****
 1  2  14  15  16  17  18  19  20  21  22  23  25  26  27 0
 3-21G
 ****
 35  36  37  38  39  40  41  42  43  44  45 0
 3-21G
 ****


