%nproc=1
%NoSave
%Mem=1900MB
#P OB98/GEN NMR

erre ene a

0 1
  C      106.740     -54.730     309.703
  O      105.625     -55.577     309.421
  P      104.764     -55.201     308.121
  C      103.385     -57.100     307.022
  O      103.484     -56.171     308.089
  C      103.809     -58.503     307.470
  O      103.005     -58.945     308.605
  C      103.666     -59.571     306.373
  O      104.743     -60.498     306.556
  C      102.334     -60.212     306.728
  O      102.132     -61.469     306.099
  C      102.452     -60.231     308.248
  N       99.306     -63.812     310.062
  C      100.490     -63.892     309.421
  N      101.268     -62.888     308.965
  C      100.707     -61.697     309.237
  C       99.503     -61.457     309.878
  C       98.783     -62.586     310.305
  N       97.564     -62.515     310.939
  N       99.251     -60.094     309.950
  C      100.256     -59.541     309.293
  N      101.195     -60.460     308.919
  O      105.671     -55.719     306.909
  O      104.449     -53.744     308.015
  H      102.762     -62.124     306.458
  H      106.168     -54.979     306.514
  H      100.863     -64.899     309.249
  H      100.348     -58.490     309.064
  H      103.151     -61.002     308.598
  H      101.518     -59.553     306.410
  H      103.709     -59.167     305.359
  H      104.851     -58.456     307.809
  H      104.020     -56.786     306.189
  H       97.122     -63.381     311.203
  H       97.133     -61.621     311.128
  H      102.358     -57.099     306.641
  P      105.876     -60.603     305.424
  C      108.144     -60.827     306.601
  O      107.020     -61.514     306.083
  O      106.536     -59.145     305.534
  O      105.409     -60.963     304.054
  H      106.753     -58.925     306.458
  H      108.803     -61.551     307.088
  H      107.828     -60.083     307.336
  H      108.692     -60.341     305.787
  H      107.236     -55.075     310.586
  H      106.397     -53.728     309.855
  H      107.422     -54.753     308.879

 3  4  5  6  7  8  9  10  11  12  22  25  29  30  31  32 0
 6-311+G(2d,p)
 ****
 33  36  37 0
 6-311+G(2d,p)
 ****
 1  2  13  14  15  16  17  18  19  20  21  23  24  26 0
 3-21G
 ****
 27  28  34  35  38  39  40  41  42  43  44  45  46  47  48 0
 3-21G
 ****


