%nproc=1
%NoSave
%Mem=1900MB
#P OB98/GEN NMR

erre ene a

0 1
  C     -194.375    -275.736    -213.426
  O     -195.766    -275.494    -213.335
  H     -193.846    -274.990    -212.828
  H     -194.041    -275.654    -214.465
  H     -194.140    -276.732    -213.037
  P     -196.721    -276.422    -214.228
  C     -196.749    -274.742    -216.216
  O     -196.427    -276.051    -215.762
  C     -196.405    -274.615    -217.704
  O     -194.967    -274.656    -217.872
  C     -196.947    -275.747    -218.564
  O     -198.324    -275.591    -218.873
  C     -196.065    -275.624    -219.791
  O     -196.565    -274.644    -220.713
  C     -194.713    -275.190    -219.193
  N     -193.751    -276.290    -219.162
  C     -192.712    -276.209    -220.092
  O     -192.595    -275.278    -220.892
  N     -191.835    -277.253    -220.098
  C     -191.916    -278.378    -219.318
  O     -191.129    -279.309    -219.418
  C     -193.042    -278.420    -218.370
  C     -193.899    -277.391    -218.338
  O     -198.179    -275.804    -213.963
  O     -196.664    -277.880    -213.909
  H     -198.686    -276.402    -213.383
  H     -195.953    -274.653    -221.473
  H     -191.075    -277.214    -220.757
  H     -193.143    -279.294    -217.739
  H     -194.744    -277.402    -217.657
  H     -194.277    -274.370    -219.782
  H     -196.002    -276.566    -220.330
  H     -196.755    -276.718    -218.081
  H     -196.768    -273.645    -218.063
  H     -196.165    -274.003    -215.655
  H     -197.818    -274.557    -216.044
  P     -199.231    -276.916    -218.937
  C     -198.804    -277.067    -221.536
  O     -198.766    -277.696    -220.262
  O     -200.651    -276.285    -219.317
  O     -199.205    -277.714    -217.671
  H     -200.554    -275.441    -219.802
  H     -198.456    -277.751    -222.282
  H     -198.176    -276.201    -221.525
  H     -199.809    -276.776    -221.760

 6  7  8  9  10  11  12  13  14  15  16  27  31  32  33  34  35 0
 6-311+G(2d,p)
 ****
 36  37 0
 6-311+G(2d,p)
 ****
 1  2  3  4  5  17  18  19  20  21  22  23  24  25 0
 3-21G
 ****
 26  28  29  30  38  39  40  41  42  43  44  45 0
 3-21G
 ****


