%nproc=1
%NoSave
%Mem=1900MB
#P OB98/GEN NMR

erre ene a

0 1
  C      176.319     -59.638     975.836
  O      176.254     -58.739     974.748
  P      174.880     -57.980     974.422
  C      172.501     -58.829     973.923
  O      173.891     -59.029     973.710
  C      171.755     -60.159     973.854
  O      172.086     -60.982     974.984
  C      170.232     -60.013     973.872
  O      169.743     -59.592     972.615
  C      169.807     -61.427     974.287
  O      169.809     -62.305     973.140
  C      170.943     -61.822     975.258
  N      168.870     -64.248     979.242
  C      168.981     -64.580     977.932
  N      169.517     -63.867     976.927
  C      169.933     -62.672     977.365
  C      169.845     -62.170     978.658
  C      169.306     -63.019     979.635
  N      169.234     -62.713     980.973
  N      170.356     -60.879     978.714
  C      170.728     -60.605     977.481
  N      170.554     -61.692     976.648
  O      175.024     -56.679     973.709
  O      174.217     -57.763     975.863
  H      169.196     -63.032     973.348
  H      174.102     -56.806     976.025
  H      168.606     -65.575     977.670
  H      171.147     -59.673     977.145
  H      171.263     -62.864     975.107
  H      168.815     -61.462     974.724
  H      169.932     -59.312     974.662
  H      172.080     -60.686     972.939
  H      172.136     -58.154     973.138
  H      168.967     -63.451     981.609
  H      169.820     -61.956     981.327
  H      172.345     -58.349     974.891
  P      168.285     -58.942     972.513
  C      165.865     -59.789     972.791
  O      167.228     -60.144     972.597
  O      168.089     -57.981     971.376
  O      168.093     -58.207     973.924
  H      167.536     -57.424     973.821
  H      165.726     -59.546     973.847
  H      165.247     -60.628     972.537
  H      165.607     -58.921     972.172
  H      177.305     -60.048     975.902
  H      175.614     -60.429     975.688
  H      176.087     -59.118     976.742

 3  4  5  6  7  8  9  10  11  12  22  25  29  30  31  32 0
 6-311+G(2d,p)
 ****
 33  36  37 0
 6-311+G(2d,p)
 ****
 1  2  13  14  15  16  17  18  19  20  21  23  24  26 0
 3-21G
 ****
 27  28  34  35  38  39  40  41  42  43  44  45  46  47  48 0
 3-21G
 ****


