%nproc=1
%NoSave
%Mem=1900MB
#P OB98/GEN NMR

erre ene a

0 1
  C      551.668     261.393    -469.160
  O      551.914     260.596    -467.986
  P      553.321     259.829    -467.838
  C      554.567     261.860    -466.745
  O      554.502     260.920    -467.805
  C      556.003     261.991    -466.250
  O      556.796     262.770    -467.181
  C      556.148     262.711    -464.914
  O      555.805     261.875    -463.818
  C      557.621     263.096    -464.934
  O      558.452     261.996    -464.504
  C      557.855     263.395    -466.433
  N      557.928     264.830    -466.711
  C      558.944     265.542    -466.084
  O      559.727     265.023    -465.272
  N      559.010     266.868    -466.369
  C      558.145     267.571    -467.169
  O      558.253     268.775    -467.367
  C      557.042     266.788    -467.737
  C      556.985     265.477    -467.480
  O      553.500     259.181    -469.292
  O      553.378     258.774    -466.781
  H      558.404     261.985    -463.526
  H      554.038     258.374    -469.227
  H      559.765     267.406    -465.944
  H      556.311     267.308    -468.362
  H      556.172     264.892    -467.899
  H      558.790     262.929    -466.775
  H      557.848     263.934    -464.277
  H      555.540     263.626    -464.923
  H      556.450     260.987    -466.191
  H      553.932     261.508    -465.921
  H      554.181     262.827    -467.097
  P      555.079     262.589    -462.571
  C      552.650     261.948    -463.287
  O      553.622     262.953    -463.083
  O      555.877     263.979    -462.523
  O      555.170     261.781    -461.314
  H      556.135     264.291    -463.411
  H      552.778     261.111    -462.585
  H      552.742     261.572    -464.318
  H      551.645     262.366    -463.161
  H      550.693     261.829    -469.097
  H      551.726     260.773    -470.030
  H      552.402     262.169    -469.225

 3  4  5  6  7  8  9  10  11  12  13  23  28  29  30  31  32 0
 6-311+G(2d,p)
 ****
 33  34 0
 6-311+G(2d,p)
 ****
 1  2  14  15  16  17  18  19  20  21  22  24  25  26 0
 3-21G
 ****
 27  35  36  37  38  39  40  41  42  43  44  45 0
 3-21G
 ****


