%nproc=1
%NoSave
%Mem=1900MB
#P OB98/GEN NMR

erre ene a

0 1
  C      121.921    -444.982      79.755
  O      122.528    -443.880      79.107
  H      120.855    -444.986      79.516
  H      122.040    -444.885      80.839
  H      122.367    -445.920      79.412
  P      124.130    -443.791      79.182
  C      124.521    -442.912      76.738
  O      124.550    -442.656      78.131
  C      125.939    -442.933      76.163
  O      126.481    -441.591      76.223
  C      126.895    -443.860      76.917
  O      127.796    -444.441      75.973
  C      127.661    -442.909      77.823
  O      128.921    -443.442      78.218
  C      127.730    -441.650      76.944
  N      127.959    -440.436      77.728
  C      129.289    -440.074      77.950
  O      130.206    -440.771      77.508
  N      129.558    -438.959      78.702
  C      128.584    -438.296      79.242
  N      128.917    -437.216      79.997
  C      127.165    -438.668      79.071
  C      126.927    -439.730      78.301
  O      124.569    -445.153      78.465
  O      124.674    -443.617      80.560
  H      129.356    -442.800      78.822
  H      124.070    -445.340      77.651
  H      126.388    -438.091      79.551
  H      125.916    -440.068      78.117
  H      128.538    -441.739      76.206
  H      127.082    -442.708      78.730
  H      126.375    -444.647      77.469
  H      125.880    -443.204      75.103
  H      129.900    -437.011      80.107
  H      123.930    -442.148      76.224
  H      128.246    -436.661      80.507
  H      124.033    -443.881      76.583
  P      127.469    -445.879      75.355
  C      128.215    -445.370      72.931
  O      128.430    -446.149      74.100
  O      126.026    -446.172      75.123
  O      128.066    -446.882      76.461
  H      127.436    -447.622      76.564
  H      128.921    -445.653      72.179
  H      128.339    -444.333      73.165
  H      127.222    -445.537      72.569

 6  7  8  9  10  11  12  13  14  15  16  26  30  31  32  33  35 0
 6-311+G(2d,p)
 ****
 37  38 0
 6-311+G(2d,p)
 ****
 1  2  3  4  5  17  18  19  20  21  22  23  24  25 0
 3-21G
 ****
 27  28  29  34  36  39  40  41  42  43  44  45  46 0
 3-21G
 ****


