%nproc=1
%NoSave
%Mem=1900MB
#P OB98/GEN NMR

erre ene a

0 1
  C       69.026       1.203     231.250
  O       69.976       0.581     232.095
  H       68.509       2.004     231.788
  H       69.548       1.633     230.391
  H       68.300       0.465     230.888
  P       69.402      -0.144     233.409
  C       69.608       2.023     234.826
  O       68.751       1.016     234.308
  C       69.045       2.571     236.135
  O       67.962       3.491     235.863
  C       68.467       1.519     237.073
  O       69.480       0.850     237.810
  C       67.604       2.389     237.977
  O       68.429       3.039     238.959
  C       67.045       3.424     236.987
  N       62.025       3.689     237.957
  C       63.100       4.183     238.614
  N       64.403       4.087     238.282
  C       64.552       3.413     237.131
  C       63.552       2.873     236.333
  C       62.233       3.022     236.793
  N       61.145       2.452     236.143
  N       64.095       2.238     235.233
  C       65.397       2.380     235.370
  N       65.720       3.091     236.497
  O       70.735      -0.544     234.205
  O       68.533      -1.333     233.151
  H       69.092       3.560     238.471
  H       70.956      -1.475     234.013
  H       62.880       4.724     239.531
  H       66.138       1.988     234.688
  H       66.997       4.431     237.424
  H       66.841       1.819     238.521
  H       67.824       0.809     236.537
  H       69.843       3.141     236.632
  H       69.694       2.838     234.098
  H       60.376       2.224     236.771
  H       61.391       1.757     235.447
  H       70.599       1.586     234.995
  P       69.265      -0.708     238.136
  C       68.053      -0.126     240.348
  O       67.980      -0.798     239.095
  O       70.492      -1.039     239.108
  O       69.254      -1.615     236.951
  H       71.010      -1.784     238.742
  H       67.137      -0.267     240.882
  H       68.213       0.919     240.183
  H       68.864      -0.525     240.920

 6  7  8  9  10  11  12  13  14  15  25  28  32  33  34  35 0
 6-311+G(2d,p)
 ****
 36  39  40 0
 6-311+G(2d,p)
 ****
 1  2  3  4  5  16  17  18  19  20  21  22  23  24 0
 3-21G
 ****
 26  27  29  30  31  37  38  41  42  43  44  45  46  47  48 0
 3-21G
 ****


