%nproc=1
%NoSave
%Mem=1900MB
#P OB98/GEN NMR

erre ene a

0 1
  C      117.008     -73.542    -203.552
  O      116.255     -72.437    -203.098
  P      116.863     -70.955    -203.091
  C      118.158     -71.540    -200.940
  O      118.242     -71.032    -202.266
  C      118.920     -70.631    -199.970
  O      120.290     -70.476    -200.452
  C      118.302     -69.224    -199.853
  O      118.026     -68.801    -198.517
  C      119.287     -68.358    -200.623
  O      119.223     -66.982    -200.296
  C      120.611     -69.077    -200.343
  N      121.671     -68.675    -201.267
  C      122.321     -67.471    -201.001
  O      122.076     -66.742    -200.047
  N      123.256     -67.082    -201.919
  C      123.519     -67.697    -203.109
  O      124.297     -67.240    -203.927
  C      122.773     -68.940    -203.354
  C      121.914     -69.377    -202.428
  O      115.934     -69.886    -202.637
  O      117.387     -70.775    -204.595
  H      119.435     -66.892    -199.346
  H      118.061     -71.420    -204.875
  H      123.737     -66.211    -201.739
  H      122.949     -69.444    -204.293
  H      121.349     -70.293    -202.583
  H      120.957     -68.897    -199.325
  H      119.045     -68.442    -201.691
  H      117.318     -69.181    -200.348
  H      118.946     -71.131    -198.995
  H      118.602     -72.541    -200.917
  H      117.106     -71.640    -200.645
  P      116.571     -68.550    -197.909
  C      116.440     -66.069    -198.687
  O      115.882     -67.369    -198.742
  O      116.511     -68.393    -196.432
  O      115.742     -69.844    -198.372
  H      115.040     -70.032    -197.729
  H      115.639     -65.337    -198.850
  H      117.182     -65.960    -199.484
  H      116.908     -65.873    -197.720
  H      116.419     -74.432    -203.473
  H      117.889     -73.643    -202.954
  H      117.286     -73.388    -204.574

 3  4  5  6  7  8  9  10  11  12  13  23  28  29  30  31  32 0
 6-311+G(2d,p)
 ****
 33  34 0
 6-311+G(2d,p)
 ****
 1  2  14  15  16  17  18  19  20  21  22  24  25  26  27 0
 3-21G
 ****
 35  36  37  38  39  40  41  42  43  44  45 0
 3-21G
 ****


