%nproc=1
%NoSave
%Mem=1900MB
#P OB98/GEN NMR

erre ene a

0 1
  C     -138.364     428.526     287.427
  O     -138.562     427.191     286.979
  P     -139.830     426.905     286.033
  C     -138.203     425.312     284.785
  O     -139.515     425.514     285.300
  C     -137.793     423.849     284.926
  O     -137.279     423.603     286.249
  C     -138.927     422.853     284.735
  O     -139.188     422.593     283.366
  C     -138.343     421.620     285.406
  O     -137.413     420.972     284.518
  C     -137.598     422.230     286.600
  N     -139.577     419.233     290.239
  C     -138.912     418.943     289.101
  N     -138.425     419.800     288.175
  C     -138.721     421.069     288.501
  C     -139.422     421.511     289.611
  C     -139.854     420.529     290.516
  N     -140.502     420.824     291.693
  N     -139.525     422.886     289.603
  C     -138.890     423.268     288.517
  N     -138.378     422.211     287.822
  O     -139.658     427.987     284.866
  O     -141.155     427.010     286.706
  H     -137.934     420.357     283.966
  H     -140.521     428.163     284.443
  H     -138.740     417.888     288.908
  H     -138.770     424.296     288.199
  H     -136.651     421.716     286.804
  H     -139.105     420.878     285.669
  H     -139.830     423.169     285.271
  H     -136.985     423.654     284.209
  H     -137.500     425.935     285.344
  H     -140.613     420.087     292.370
  H     -140.528     421.797     291.991
  H     -138.181     425.613     283.732
  P     -140.730     422.502     282.928
  C     -140.212     423.741     280.705
  O     -140.720     422.579     281.327
  O     -141.320     423.915     283.382
  O     -141.469     421.353     283.530
  H     -142.282     423.847     283.543
  H     -139.991     423.511     279.658
  H     -139.292     424.080     281.189
  H     -140.960     424.538     280.740
  H     -137.490     428.570     288.043
  H     -139.215     428.842     287.993
  H     -138.237     429.171     286.582

 3  4  5  6  7  8  9  10  11  12  22  25  29  30  31  32 0
 6-311+G(2d,p)
 ****
 33  36  37 0
 6-311+G(2d,p)
 ****
 1  2  13  14  15  16  17  18  19  20  21  23  24  26 0
 3-21G
 ****
 27  28  34  35  38  39  40  41  42  43  44  45  46  47  48 0
 3-21G
 ****


