%nproc=1
%NoSave
%Mem=1900MB
#P OB98/GEN NMR

erre ene a

0 1
  C     -469.104     -46.039     263.816
  O     -468.436     -45.229     262.876
  H     -469.991     -45.505     264.170
  H     -468.445     -46.232     264.669
  H     -469.421     -46.987     263.376
  P     -467.394     -45.912     261.874
  C     -465.378     -45.033     263.228
  O     -466.026     -46.175     262.676
  C     -464.246     -45.433     264.178
  O     -464.797     -45.796     265.463
  C     -463.457     -46.645     263.673
  O     -462.393     -46.329     262.798
  C     -462.935     -47.242     264.978
  O     -461.677     -46.656     265.354
  C     -464.020     -46.878     265.998
  N     -465.136     -50.637     269.282
  C     -464.026     -49.813     269.251
  N     -463.087     -50.049     270.196
  N     -463.856     -48.862     268.370
  C     -464.832     -48.812     267.433
  C     -465.967     -49.589     267.349
  C     -466.182     -50.587     268.373
  O     -467.153     -51.332     268.452
  N     -466.710     -49.275     266.235
  C     -465.979     -48.375     265.604
  N     -464.872     -48.004     266.333
  O     -466.988     -44.718     260.884
  O     -467.916     -47.082     261.099
  H     -461.040     -46.811     264.625
  H     -466.785     -45.077     260.001
  H     -465.222     -51.327     270.001
  H     -466.227     -47.929     264.650
  H     -463.582     -46.521     266.937
  H     -462.761     -48.316     264.874
  H     -463.124     -50.820     270.842
  H     -464.124     -47.376     263.209
  H     -462.176     -49.595     270.094
  H     -463.592     -44.567     264.343
  H     -466.142     -44.475     263.771
  H     -465.000     -44.389     262.431
  P     -462.154     -47.166     261.457
  C     -460.678     -49.021     262.582
  O     -461.837     -48.676     261.856
  O     -460.748     -46.618     260.931
  O     -463.228     -47.040     260.426
  H     -460.879     -45.949     260.232
  H     -460.659     -50.079     262.743
  H     -460.685     -48.517     263.526
  H     -459.810     -48.729     262.028

 6  7  8  9  10  11  12  13  14  15  26  29  33  34 0
 6-311+G(2d,p)
 ****
 36  38  39  40  41 0
 6-311+G(2d,p)
 ****
 1  2  3  4  5  16  17  18  19  20  21  22  23  24  25 0
 3-21G
 ****
 27  28  30  31  32  35  37  42  43  44  45  46  47 0
 3-21G
 ****
 48  49 0
 3-21G
 ****


