%nproc=1
%NoSave
%Mem=1900MB
#P OB98/GEN NMR

erre ene a

0 1
  C      -33.383     -14.283      44.655
  O      -33.984     -15.562      44.539
  P      -35.482     -15.811      45.055
  C      -34.557     -16.438      47.370
  O      -35.457     -15.606      46.647
  C      -34.884     -16.418      48.862
  O      -34.970     -15.041      49.302
  C      -36.210     -17.090      49.201
  O      -36.083     -17.755      50.460
  C      -37.185     -15.936      49.368
  O      -38.274     -16.295      50.236
  C      -36.262     -14.838      49.905
  N      -39.357     -10.966      51.244
  C      -39.105     -12.157      51.829
  N      -38.292     -13.149      51.404
  C      -37.658     -12.789      50.277
  C      -37.808     -11.605      49.569
  C      -38.709     -10.664      50.095
  N      -38.955      -9.443      49.504
  N      -37.013     -11.608      48.438
  C      -36.381     -12.761      48.479
  N      -36.729     -13.505      49.575
  O      -36.100     -17.089      44.604
  O      -36.301     -14.539      44.540
  H      -37.891     -16.466      51.121
  H      -37.196     -14.805      44.254
  H      -39.633     -12.343      52.761
  H      -35.677     -13.108      47.739
  H      -36.145     -14.906      50.993
  H      -37.607     -15.667      48.392
  H      -36.536     -17.801      48.434
  H      -34.059     -16.888      49.409
  H      -33.541     -16.060      47.220
  H      -39.521      -8.786      50.017
  H      -38.348      -9.149      48.750
  H      -34.608     -17.459      46.976
  P      -37.232     -18.831      50.807
  C      -37.683     -17.651      53.083
  O      -38.194     -18.078      51.842
  O      -36.659     -20.142      51.236
  O      -38.044     -18.873      49.428
  H      -37.935     -18.039      48.919
  H      -38.494     -17.198      53.660
  H      -36.904     -16.899      52.933
  H      -37.280     -18.499      53.645
  H      -32.390     -14.318      44.258
  H      -33.345     -13.999      45.686
  H      -33.960     -13.567      44.109

 3  4  5  6  7  8  9  10  11  12  22  25  29  30  31  32 0
 6-311+G(2d,p)
 ****
 33  36  37 0
 6-311+G(2d,p)
 ****
 1  2  13  14  15  16  17  18  19  20  21  23  24  26 0
 3-21G
 ****
 27  28  34  35  38  39  40  41  42  43  44  45  46  47  48 0
 3-21G
 ****


