%nproc=1
%NoSave
%Mem=1900MB
#P OB98/GEN NMR

erre ene a

0 1
  C       22.567     -71.924    -106.444
  O       21.829     -72.543    -105.414
  P       20.252     -72.313    -105.264
  C       20.655     -70.355    -103.638
  O       20.047     -70.771    -104.857
  C       19.747     -69.361    -102.904
  O       19.598     -68.166    -103.733
  C       18.339     -69.926    -102.630
  O       17.922     -69.833    -101.267
  C       17.476     -69.177    -103.631
  O       16.102     -69.148    -103.297
  C       18.197     -67.827    -103.714
  N       17.797     -67.050    -104.884
  C       16.744     -66.155    -104.720
  O       16.144     -65.973    -103.665
  N       16.339     -65.495    -105.847
  C       16.790     -65.718    -107.113
  O       16.313     -65.161    -108.091
  C       17.876     -66.704    -107.229
  C       18.341     -67.299    -106.128
  O       19.546     -73.281    -104.376
  O       19.739     -72.326    -106.781
  H       15.785     -70.069    -103.250
  H       20.133     -71.644    -107.352
  H       15.576     -64.843    -105.742
  H       18.248     -66.910    -108.223
  H       19.140     -68.030    -106.183
  H       18.021     -67.224    -102.822
  H       17.559     -69.693    -104.596
  H       18.298     -71.000    -102.845
  H       20.248     -69.077    -101.974
  H       21.606     -69.870    -103.868
  H       20.873     -71.229    -103.015
  P       16.923     -70.850    -100.541
  C       14.893     -69.230    -100.413
  O       15.425     -70.435    -100.921
  O       17.170     -71.053     -99.084
  O       17.135     -72.219    -101.344
  H       16.960     -72.974    -100.752
  H       13.808     -69.337    -100.322
  H       15.106     -68.419    -101.114
  H       15.309     -68.988     -99.432
  H       23.596     -72.207    -106.366
  H       22.482     -70.861    -106.354
  H       22.183     -72.234    -107.394

 3  4  5  6  7  8  9  10  11  12  13  23  28  29  30  31  32 0
 6-311+G(2d,p)
 ****
 33  34 0
 6-311+G(2d,p)
 ****
 1  2  14  15  16  17  18  19  20  21  22  24  25  26  27 0
 3-21G
 ****
 35  36  37  38  39  40  41  42  43  44  45 0
 3-21G
 ****


