%nproc=1
%NoSave
%Mem=1900MB
#P OB98/GEN NMR

erre ene a

0 1
  C      -15.205      17.885      -0.492
  O      -14.196      17.381       0.366
  P      -14.539      16.039       1.183
  C      -15.314      16.346       3.658
  O      -15.632      16.447       2.279
  C      -14.271      17.402       4.024
  O      -14.608      18.669       3.425
  C      -14.139      17.659       5.519
  O      -13.319      16.675       6.121
  C      -13.535      19.059       5.534
  O      -12.113      19.007       5.311
  C      -14.254      19.730       4.355
  N      -16.140      24.352       5.143
  C      -14.835      23.948       4.933
  N      -13.906      24.927       4.883
  N      -14.475      22.702       4.784
  C      -15.508      21.832       4.871
  C      -16.838      22.106       5.090
  C      -17.229      23.492       5.201
  O      -18.381      23.907       5.289
  N      -17.586      20.960       5.137
  C      -16.714      19.998       4.916
  N      -15.443      20.474       4.727
  O      -13.210      15.783       2.031
  O      -14.921      14.863       0.341
  H      -11.761      19.915       5.276
  H      -12.645      15.115       1.596
  H      -16.360      25.327       5.233
  H      -16.955      18.947       4.862
  H      -13.600      20.425       3.816
  H      -13.683      19.560       6.495
  H      -14.106      25.906       5.014
  H      -15.128      17.680       5.992
  H      -12.942      24.650       4.735
  H      -13.309      17.081       3.604
  H      -14.908      15.352       3.860
  H      -16.227      16.483       4.247
  P      -13.257      16.643       7.724
  C      -10.949      17.414       8.628
  O      -12.238      17.789       8.182
  O      -12.471      15.282       8.034
  O      -14.589      16.665       8.395
  H      -12.833      14.874       8.843
  H      -10.250      18.220       8.399
  H      -10.604      16.495       8.146
  H      -10.974      17.264       9.711
  H      -14.853      18.774      -0.973
  H      -16.080      18.112       0.081
  H      -15.444      17.150      -1.232

 3  4  5  6  7  8  9  10  11  12  23  26  30  31 0
 6-311+G(2d,p)
 ****
 33  35  36  37  38 0
 6-311+G(2d,p)
 ****
 1  2  13  14  15  16  17  18  19  20  21  22  24  25 0
 3-21G
 ****
 27  28  29  32  34  39  40  41  42  43  44  45  46  47  48  49 0
 3-21G
 ****


