%nproc=1
%NoSave
%Mem=1900MB
#P OB98/GEN NMR

erre ene a

0 1
  C      352.845       4.594     119.100
  O      352.950       3.197     119.314
  P      353.051       2.239     118.035
  C      350.533       1.631     117.893
  O      351.858       1.170     118.122
  C      349.505       0.637     118.445
  O      348.170       1.181     118.295
  C      349.526      -0.722     117.733
  O      349.203      -1.758     118.675
  C      348.373      -0.623     116.758
  O      347.886      -1.919     116.391
  C      347.385       0.216     117.565
  N      342.475       0.494     116.392
  C      343.088      -0.098     117.478
  N      342.278      -0.778     118.325
  N      344.363      -0.017     117.723
  C      345.048       0.687     116.789
  C      344.551       1.333     115.676
  C      343.135       1.227     115.414
  O      342.543       1.704     114.452
  N      345.548       1.978     114.989
  C      346.652       1.690     115.656
  N      346.403       0.882     116.734
  O      354.359       1.367     118.342
  O      353.179       2.953     116.732
  H      347.647      -2.373     117.223
  H      355.100       1.668     117.786
  H      341.484       0.397     116.237
  H      347.647       2.021     115.386
  H      346.845      -0.393     118.300
  H      348.691      -0.108     115.845
  H      341.292      -0.929     118.153
  H      350.474      -0.960     117.237
  H      342.706      -1.257     119.102
  H      349.684       0.516     119.521
  H      350.374       1.746     116.818
  H      350.400       2.610     118.368
  P      350.446      -2.635     119.205
  C      349.872      -4.706     117.735
  O      349.998      -4.164     119.034
  O      350.407      -2.399     120.789
  O      351.756      -2.263     118.603
  H      351.296      -2.536     121.171
  H      350.600      -5.515     117.614
  H      350.039      -3.958     116.952
  H      348.868      -5.119     117.619
  H      352.787       5.096     120.043
  H      351.964       4.802     118.530
  H      353.705       4.939     118.565

 3  4  5  6  7  8  9  10  11  12  23  26  30  31 0
 6-311+G(2d,p)
 ****
 33  35  36  37  38 0
 6-311+G(2d,p)
 ****
 1  2  13  14  15  16  17  18  19  20  21  22  24  25 0
 3-21G
 ****
 27  28  29  32  34  39  40  41  42  43  44  45  46  47  48  49 0
 3-21G
 ****


