%nproc=1
%NoSave
%Mem=1900MB
#P OB98/GEN NMR

erre ene a

0 1
  C      118.506     151.546      13.036
  O      119.745     151.349      12.389
  H      117.958     150.600      13.044
  H      117.915     152.290      12.497
  H      118.663     151.871      14.069
  P      120.730     152.615      12.288
  C      122.763     152.324      13.890
  O      122.192     152.029      12.620
  C      123.935     151.381      14.179
  O      123.421     150.062      14.487
  C      124.907     151.243      13.005
  O      126.250     151.276      13.494
  C      124.583     149.882      12.413
  O      125.699     149.308      11.733
  C      124.094     149.108      13.643
  N      123.205     148.006      13.276
  C      123.690     146.710      13.478
  O      124.824     146.538      13.933
  N      122.909     145.646      13.110
  C      121.766     145.854      12.532
  N      121.049     144.755      12.172
  C      121.234     147.203      12.257
  C      121.994     148.222      12.653
  O      120.359     153.462      13.591
  O      120.645     153.389      11.016
  H      126.448     149.261      12.368
  H      120.737     154.374      13.550
  H      120.284     147.325      11.758
  H      121.686     149.250      12.490
  H      124.944     148.699      14.209
  H      123.766     149.987      11.689
  H      124.786     152.027      12.257
  H      124.449     151.735      15.081
  H      121.448     143.847      12.367
  H      121.997     152.204      14.659
  H      120.159     144.798      11.691
  H      123.117     153.360      13.892
  P      126.824     152.727      13.875
  C      126.631     153.161      16.426
  O      127.417     152.635      15.366
  O      125.505     153.619      14.041
  O      127.764     153.284      12.859
  H      125.346     154.143      13.235
  H      127.149     153.031      17.353
  H      125.694     152.645      16.465
  H      126.457     154.203      16.258

 6  7  8  9  10  11  12  13  14  15  16  26  30  31  32  33  35 0
 6-311+G(2d,p)
 ****
 37  38 0
 6-311+G(2d,p)
 ****
 1  2  3  4  5  17  18  19  20  21  22  23  24  25 0
 3-21G
 ****
 27  28  29  34  36  39  40  41  42  43  44  45  46 0
 3-21G
 ****


