%nproc=1
%NoSave
%Mem=1900MB
#P OB98/GEN NMR

erre ene a

0 1
  C      244.114    -360.543    -115.596
  O      244.208    -361.639    -114.717
  P      243.468    -363.018    -115.073
  C      241.621    -363.724    -113.435
  O      241.958    -362.908    -114.553
  C      242.132    -363.096    -112.141
  O      241.662    -361.737    -112.019
  C      241.671    -363.805    -110.877
  O      242.404    -365.000    -110.672
  C      241.906    -362.728    -109.820
  O      243.291    -362.703    -109.424
  C      241.552    -361.453    -110.605
  N      238.681    -359.138    -107.066
  C      239.932    -359.643    -107.019
  N      240.615    -360.287    -108.001
  C      239.873    -360.395    -109.100
  C      238.558    -359.963    -109.284
  C      237.963    -359.290    -108.205
  N      236.711    -358.714    -108.263
  N      238.112    -360.300    -110.557
  C      239.127    -360.924    -111.119
  N      240.223    -360.951    -110.304
  O      244.194    -364.260    -114.670
  O      243.304    -362.955    -116.668
  H      243.401    -361.961    -108.808
  H      243.781    -363.710    -117.075
  H      240.463    -359.509    -106.083
  H      239.120    -361.354    -112.114
  H      242.260    -360.638    -110.392
  H      241.308    -362.878    -108.925
  H      240.594    -364.027    -110.940
  H      243.229    -363.064    -112.185
  H      242.076    -364.712    -113.578
  H      236.447    -358.124    -107.485
  H      236.294    -358.546    -109.177
  H      240.528    -363.848    -113.390
  P      241.768    -366.189    -109.799
  C      242.624    -366.482    -107.405
  O      241.806    -365.723    -108.270
  O      242.318    -367.553    -110.076
  O      240.209    -366.121    -110.164
  H      239.827    -367.021    -110.134
  H      242.108    -367.423    -107.142
  H      242.802    -365.908    -106.488
  H      243.578    -366.721    -107.871
  H      244.666    -359.718    -115.197
  H      243.087    -360.264    -115.710
  H      244.517    -360.815    -116.549

 3  4  5  6  7  8  9  10  11  12  22  25  29  30  31  32 0
 6-311+G(2d,p)
 ****
 33  36  37 0
 6-311+G(2d,p)
 ****
 1  2  13  14  15  16  17  18  19  20  21  23  24  26 0
 3-21G
 ****
 27  28  34  35  38  39  40  41  42  43  44  45  46  47  48 0
 3-21G
 ****


