%nproc=1
%NoSave
%Mem=1900MB
#P OB98/GEN NMR

erre ene a

0 1
  C     -564.945     421.835     235.929
  O     -565.856     422.769     236.521
  P     -565.325     423.597     237.784
  C     -565.148     425.983     236.743
  O     -565.843     425.112     237.639
  C     -566.147     426.776     235.900
  O     -566.775     425.951     234.896
  C     -567.292     427.364     236.711
  O     -566.867     428.482     237.463
  C     -568.301     427.672     235.612
  O     -567.943     428.906     234.943
  C     -568.087     426.486     234.648
  N     -571.370     423.389     232.223
  C     -570.518     424.346     231.764
  N     -569.686     425.123     232.471
  C     -569.768     424.852     233.790
  C     -570.585     423.910     234.396
  C     -571.423     423.162     233.556
  N     -572.305     422.207     234.019
  N     -570.400     423.916     235.762
  C     -569.502     424.854     235.983
  N     -569.085     425.440     234.817
  O     -563.751     423.709     237.513
  O     -565.618     422.950     239.094
  H     -567.016     428.798     234.656
  H     -563.267     423.141     238.145
  H     -570.513     424.490     230.698
  H     -569.129     425.154     236.957
  H     -568.128     426.804     233.593
  H     -569.327     427.782     235.973
  H     -567.714     426.601     237.393
  H     -565.595     427.580     235.401
  H     -564.483     425.400     236.097
  H     -572.927     421.776     233.350
  H     -572.412     422.087     235.016
  H     -564.507     426.652     237.320
  P     -567.897     429.126     238.503
  C     -566.517     428.634     240.619
  O     -566.969     429.634     239.721
  O     -568.592     427.830     239.117
  O     -568.825     430.146     237.935
  H     -567.937     427.137     239.339
  H     -565.871     429.098     241.362
  H     -565.966     427.866     240.083
  H     -567.382     428.178     241.136
  H     -565.419     421.351     235.101
  H     -564.662     421.103     236.656
  H     -564.074     422.354     235.588

 3  4  5  6  7  8  9  10  11  12  22  25  29  30  31  32 0
 6-311+G(2d,p)
 ****
 33  36  37 0
 6-311+G(2d,p)
 ****
 1  2  13  14  15  16  17  18  19  20  21  23  24  26 0
 3-21G
 ****
 27  28  34  35  38  39  40  41  42  43  44  45  46  47  48 0
 3-21G
 ****


