%nproc=1
%NoSave
%Mem=1900MB
#P OB98/GEN NMR

erre ene a

0 1
  C       -5.652     367.465       0.830
  O       -4.453     366.946       0.282
  P       -3.976     367.532      -1.136
  C       -4.936     367.514      -3.550
  O       -5.044     367.020      -2.222
  C       -6.223     367.272      -4.339
  O       -7.312     367.967      -3.692
  C       -6.162     367.735      -5.797
  O       -6.895     366.797      -6.590
  C       -6.909     369.055      -5.779
  O       -7.442     369.379      -7.060
  C       -7.960     368.788      -4.686
  N       -8.482     370.023      -4.108
  C       -9.356     370.773      -4.901
  O       -9.589     370.427      -6.056
  N       -9.895     371.923      -4.381
  C       -9.515     372.343      -3.216
  N      -10.086     373.486      -2.743
  C       -8.499     371.645      -2.398
  C       -8.049     370.495      -2.892
  O       -2.675     366.656      -1.462
  O       -3.689     368.996      -1.143
  H       -8.174     370.021      -6.933
  H       -2.024     367.177      -1.969
  H       -8.191     372.058      -1.448
  H       -7.319     369.902      -2.353
  H       -8.801     368.215      -5.096
  H       -6.233     369.864      -5.472
  H       -5.137     367.816      -6.173
  H       -6.453     366.198      -4.294
  H      -10.764     373.952      -3.328
  H       -4.120     366.998      -4.058
  H       -9.847     373.887      -1.846
  H       -4.695     368.583      -3.524
  P       -6.371     366.508      -8.077
  C       -6.862     367.607     -10.345
  O       -6.854     367.772      -8.940
  O       -7.396     365.375      -8.559
  O       -4.955     366.065      -8.255
  H       -7.144     365.061      -9.448
  H       -7.339     368.484     -10.796
  H       -7.424     366.716     -10.625
  H       -5.836     367.532     -10.718
  H       -5.850     366.991       1.768
  H       -6.462     367.277       0.157
  H       -5.549     368.520       0.978

 3  4  5  6  7  8  9  10  11  12  13  21  23  27  28  29  30  32 0
 6-311+G(2d,p)
 ****
 34  35 0
 6-311+G(2d,p)
 ****
 1  2  14  15  16  17  18  19  20  22  24  25  26 0
 3-21G
 ****
 31  33  36  37  38  39  40  41  42  43  44  45  46 0
 3-21G
 ****


