%nproc=1
%NoSave
%Mem=1900MB
#P OB98/GEN NMR

erre ene a

0 1
  C       -4.270    -268.896      65.803
  O       -4.591    -270.175      65.251
  P       -3.430    -271.153      64.728
  C       -4.555    -273.370      65.333
  O       -4.086    -272.549      64.271
  C       -5.321    -274.609      64.851
  O       -6.671    -274.263      64.452
  C       -4.677    -275.348      63.673
  O       -4.980    -276.732      63.866
  C       -5.439    -274.785      62.487
  O       -5.332    -275.600      61.327
  C       -6.849    -274.658      63.078
  N       -7.678    -273.708      62.342
  C       -8.651    -274.239      61.498
  O       -8.748    -275.460      61.351
  N       -9.463    -273.379      60.798
  C       -9.250    -272.102      60.865
  N      -10.070    -271.300      60.132
  C       -8.174    -271.499      61.675
  C       -7.442    -272.353      62.390
  O       -2.264    -271.291      65.653
  O       -2.969    -270.493      63.340
  H       -5.820    -275.163      60.597
  H       -2.025    -270.690      63.188
  H       -8.018    -270.430      61.680
  H       -6.633    -272.009      63.022
  H       -7.356    -275.632      63.077
  H       -5.046    -273.793      62.231
  H       -3.599    -275.188      63.599
  H       -5.411    -275.289      65.708
  H      -10.776    -271.755      59.566
  H       -5.212    -272.771      65.972
  H       -9.921    -270.309      60.020
  H       -3.703    -273.678      65.948
  P       -3.838    -277.849      63.931
  C       -5.000    -278.980      65.910
  O       -4.494    -279.149      64.597
  O       -2.559    -277.404      64.565
  O       -3.605    -278.295      62.406
  H       -2.749    -278.753      62.335
  H       -5.604    -279.851      66.171
  H       -5.625    -278.083      65.973
  H       -4.172    -278.897      66.616
  H       -5.171    -268.396      66.092
  H       -3.757    -268.310      65.070
  H       -3.642    -269.025      66.660

 3  4  5  6  7  8  9  10  11  12  13  23  27  28  29  30  32 0
 6-311+G(2d,p)
 ****
 34  35 0
 6-311+G(2d,p)
 ****
 1  2  14  15  16  17  18  19  20  21  22  24  25  26 0
 3-21G
 ****
 31  33  36  37  38  39  40  41  42  43  44  45  46 0
 3-21G
 ****


