%nproc=1
%NoSave
%Mem=1900MB
#P OB98/GEN NMR

erre ene a

0 1
  C      -62.324      37.195     -49.694
  O      -61.929      36.837     -48.380
  P      -63.085      36.470     -47.329
  C      -64.988      34.703     -47.298
  O      -64.120      35.505     -48.085
  C      -66.349      34.542     -47.978
  O      -67.059      35.811     -47.915
  C      -66.278      34.130     -49.457
  O      -67.407      33.284     -49.704
  C      -66.425      35.464     -50.166
  O      -66.778      35.356     -51.534
  C      -67.455      36.139     -49.265
  N      -70.465      40.082     -50.498
  C      -70.728      38.766     -50.333
  N      -69.876      37.776     -49.996
  C      -68.635      38.260     -49.813
  C      -68.213      39.569     -49.963
  C      -69.193      40.509     -50.322
  N      -68.920      41.850     -50.498
  N      -66.861      39.681     -49.718
  C      -66.470      38.457     -49.427
  N      -67.511      37.570     -49.450
  O      -63.896      37.842     -47.193
  O      -62.599      35.972     -46.003
  H      -67.711      35.079     -51.617
  H      -64.181      37.993     -46.271
  H      -71.760      38.469     -50.494
  H      -65.455      38.161     -49.206
  H      -68.464      35.739     -49.425
  H      -65.467      35.997     -50.124
  H      -65.362      33.588     -49.713
  H      -66.935      33.811     -47.409
  H      -65.145      35.184     -46.327
  H      -69.639      42.398     -50.946
  H      -67.945      42.116     -50.568
  H      -64.520      33.729     -47.119
  P      -67.344      32.243     -50.924
  C      -65.646      30.423     -51.561
  O      -65.879      31.595     -50.803
  O      -67.153      33.239     -52.163
  O      -68.498      31.311     -51.045
  H      -66.428      33.870     -52.009
  H      -64.592      30.149     -51.463
  H      -65.869      30.602     -52.616
  H      -66.261      29.604     -51.179
  H      -61.456      37.412     -50.281
  H      -62.953      38.060     -49.654
  H      -62.861      36.383     -50.139

 3  4  5  6  7  8  9  10  11  12  22  25  29  30  31  32 0
 6-311+G(2d,p)
 ****
 33  36  37 0
 6-311+G(2d,p)
 ****
 1  2  13  14  15  16  17  18  19  20  21  23  24  26 0
 3-21G
 ****
 27  28  34  35  38  39  40  41  42  43  44  45  46  47  48 0
 3-21G
 ****


