%nproc=1
%NoSave
%Mem=1900MB
#P OB98/GEN NMR

erre ene a

0 1
  C      238.964    -898.358      77.514
  O      240.223    -898.068      78.094
  H      238.749    -899.428      77.663
  H      238.991    -898.168      76.440
  H      238.178    -897.768      77.982
  P      240.638    -896.528      78.198
  C      241.968    -896.668      75.960
  O      240.929    -896.038      76.693
  C      242.029    -896.108      74.537
  O      242.905    -894.958      74.533
  C      242.584    -897.098      73.492
  O      241.873    -896.898      72.258
  C      244.015    -896.678      73.336
  O      244.601    -897.058      72.096
  C      243.893    -895.148      73.491
  N      245.154    -894.508      73.809
  C      246.136    -894.498      72.838
  O      245.991    -894.908      71.691
  N      247.348    -893.968      73.223
  C      247.670    -893.478      74.449
  O      248.775    -893.038      74.740
  C      246.592    -893.508      75.454
  C      245.393    -894.028      75.093
  O      242.096    -896.588      78.849
  O      239.706    -895.648      78.959
  H      242.043    -896.558      79.824
  H      245.555    -896.848      72.121
  H      248.074    -893.948      72.528
  H      246.804    -893.158      76.444
  H      244.585    -894.088      75.816
  H      243.481    -894.708      72.563
  H      244.619    -897.088      74.138
  H      242.501    -898.148      73.792
  H      241.051    -895.758      74.254
  H      241.763    -897.748      75.912
  H      242.922    -896.518      76.472
  P      240.580    -897.788      71.983
  C      241.852    -899.018      70.036
  O      241.119    -899.108      71.248
  O      239.873    -896.948      70.822
  O      239.759    -898.008      73.203
  H      240.507    -896.518      70.215
  H      242.120    -900.000      69.707
  H      242.739    -898.441      70.198
  H      241.250    -898.544      69.289

 6  7  8  9  10  11  12  13  14  15  16  27  31  32  33  34  35 0
 6-311+G(2d,p)
 ****
 36  37 0
 6-311+G(2d,p)
 ****
 1  2  3  4  5  17  18  19  20  21  22  23  24  25 0
 3-21G
 ****
 26  28  29  30  38  39  40  41  42  43  44  45 0
 3-21G
 ****


