%nproc=1
%NoSave
%Mem=1900MB
#P OB98/GEN NMR

erre ene a

0 1
  C       45.959    1698.998    -448.418
  O       44.749    1698.249    -448.488
  P       43.475    1698.857    -449.265
  C       43.166    1697.274    -451.272
  O       43.632    1698.549    -450.828
  C       42.200    1697.399    -452.450
  O       40.919    1697.958    -452.006
  C       42.703    1698.257    -453.604
  O       42.235    1697.656    -454.833
  C       42.019    1699.568    -453.357
  O       41.989    1700.407    -454.509
  C       40.644    1699.073    -452.862
  N       39.886    1700.112    -452.139
  C       38.649    1700.451    -452.647
  O       38.266    1699.975    -453.727
  N       37.862    1701.349    -451.928
  C       38.374    1701.964    -450.909
  N       37.579    1702.831    -450.233
  C       39.770    1701.738    -450.451
  C       40.449    1700.799    -451.101
  O       43.155    1700.277    -448.912
  O       42.281    1697.875    -448.831
  H       41.325    1701.133    -454.360
  H       41.471    1698.390    -448.748
  H       40.183    1702.335    -449.644
  H       41.465    1700.564    -450.824
  H       40.031    1698.722    -453.709
  H       42.525    1700.134    -452.558
  H       43.797    1698.350    -453.653
  H       41.985    1696.379    -452.815
  H       36.640    1702.983    -450.574
  H       42.673    1696.778    -450.431
  H       37.883    1703.307    -449.376
  H       44.033    1696.647    -451.521
  P       43.182    1696.625    -455.590
  C       41.488    1694.701    -455.233
  O       42.808    1695.148    -455.091
  O       44.604    1696.882    -454.876
  O       43.333    1696.842    -457.085
  H       45.303    1696.633    -455.504
  H       41.478    1693.602    -455.111
  H       41.067    1694.948    -456.208
  H       40.859    1695.127    -454.448
  H       46.691    1698.443    -447.868
  H       45.774    1699.930    -447.926
  H       46.321    1699.183    -449.408

 3  4  5  6  7  8  9  10  11  12  13  23  27  28  29  30  32 0
 6-311+G(2d,p)
 ****
 34  35 0
 6-311+G(2d,p)
 ****
 1  2  14  15  16  17  18  19  20  21  22  24  25  26 0
 3-21G
 ****
 31  33  36  37  38  39  40  41  42  43  44  45  46 0
 3-21G
 ****


