%nproc=1
%NoSave
%Mem=1900MB
#P OB98/GEN NMR

erre ene a

0 1
  C      109.698     573.748    -209.031
  O      109.237     574.127    -210.313
  H      109.157     572.861    -208.679
  H      110.766     573.502    -209.100
  H      109.575     574.573    -208.325
  P      107.688     574.538    -210.430
  C      106.071     572.800    -211.484
  O      106.863     573.166    -210.359
  C      106.958     572.110    -212.531
  O      107.648     570.991    -211.940
  C      106.190     571.538    -213.713
  O      105.879     572.526    -214.694
  C      107.206     570.541    -214.256
  O      108.230     571.245    -214.986
  C      107.791     569.964    -212.956
  N      108.372     565.440    -210.607
  C      109.253     566.409    -210.927
  N      109.026     567.583    -211.551
  C      107.717     567.709    -211.861
  C      106.714     566.799    -211.616
  C      107.067     565.614    -210.940
  N      106.180     564.613    -210.642
  N      105.497     567.260    -212.118
  C      105.784     568.435    -212.626
  N      107.108     568.749    -212.514
  O      107.535     574.980    -211.966
  O      107.223     575.598    -209.482
  H      108.737     570.575    -215.480
  H      106.747     575.541    -212.075
  H      110.284     566.227    -210.634
  H      105.066     569.103    -213.095
  H      108.862     569.731    -213.042
  H      106.779     569.811    -214.931
  H      105.292     570.993    -213.403
  H      107.711     572.836    -212.858
  H      105.632     573.700    -211.921
  H      106.564     563.732    -210.325
  H      105.246     564.663    -211.015
  H      105.274     572.113    -211.157
  P      104.794     572.144    -215.807
  C      105.680     572.213    -218.258
  O      105.624     571.502    -217.022
  O      104.340     573.571    -216.373
  O      103.637     571.328    -215.313
  H      103.437     573.533    -216.743
  H      106.266     571.659    -218.962
  H      106.127     573.172    -218.098
  H      104.689     572.341    -218.641

 6  7  8  9  10  11  12  13  14  15  25  28  32  33  34  35 0
 6-311+G(2d,p)
 ****
 36  39  40 0
 6-311+G(2d,p)
 ****
 1  2  3  4  5  16  17  18  19  20  21  22  23  24 0
 3-21G
 ****
 26  27  29  30  31  37  38  41  42  43  44  45  46  47 0
 3-21G
 ****
 48 0
 3-21G
 ****


