%nproc=1
%NoSave
%Mem=1900MB
#P OB98/GEN NMR

erre ene a

0 1
  C       47.131    -112.048     -28.537
  O       48.421    -111.781     -28.022
  H       46.555    -111.118     -28.535
  H       46.610    -112.781     -27.914
  H       47.201    -112.414     -29.566
  P       49.440    -113.002     -27.845
  C       48.858    -113.104     -25.324
  O       48.949    -113.816     -26.554
  C       49.672    -113.804     -24.236
  O       49.255    -115.176     -24.102
  C       51.170    -113.849     -24.514
  O       51.762    -112.587     -24.282
  C       51.597    -114.956     -23.559
  O       51.689    -114.466     -22.212
  C       50.412    -115.946     -23.700
  N       50.669    -117.028     -24.645
  C       50.818    -118.307     -24.093
  O       50.747    -118.468     -22.875
  N       51.063    -119.360     -24.939
  C       51.109    -119.169     -26.222
  N       51.350    -120.255     -27.008
  C       50.922    -117.844     -26.846
  C       50.720    -116.829     -26.007
  O       50.898    -112.653     -27.836
  O       49.077    -113.987     -29.053
  H       52.195    -115.140     -21.715
  H       49.654    -113.811     -29.823
  H       50.958    -117.732     -27.921
  H       50.573    -115.821     -26.387
  H       50.171    -116.396     -22.727
  H       52.569    -115.373     -23.817
  H       51.357    -114.189     -25.540
  H       49.463    -113.300     -23.282
  H       51.450    -121.147     -26.532
  H       47.798    -113.080     -25.043
  H       51.247    -120.253     -28.010
  H       49.205    -112.071     -25.448
  P       53.026    -112.083     -25.130
  C       54.413    -112.569     -23.017
  O       54.312    -112.736     -24.424
  O       53.107    -110.607     -25.337
  O       52.920    -112.913     -26.496
  H       52.227    -112.527     -27.082
  H       55.305    -113.044     -22.665
  H       53.562    -113.012     -22.543
  H       54.448    -111.525     -22.783

 6  7  8  9  10  11  12  13  14  15  16  26  30  31  32  33  35 0
 6-311+G(2d,p)
 ****
 37  38 0
 6-311+G(2d,p)
 ****
 1  2  3  4  5  17  18  19  20  21  22  23  24  25 0
 3-21G
 ****
 27  28  29  34  36  39  40  41  42  43  44  45  46 0
 3-21G
 ****


