%nproc=1
%NoSave
%Mem=1900MB
#P OB98/GEN NMR

erre ene a

0 1
  C      595.388     478.053     150.753
  O      594.241     477.319     151.110
  H      595.100     479.081     150.520
  H      595.861     477.613     149.868
  H      596.107     478.077     151.584
  P      594.412     475.829     151.664
  C      595.681     473.833     150.619
  O      594.763     474.895     150.395
  C      595.767     472.961     149.372
  O      596.195     473.754     148.229
  C      596.779     471.818     149.484
  O      596.293     470.766     150.297
  C      596.983     471.472     148.018
  O      595.938     470.613     147.548
  C      596.893     472.854     147.333
  N      598.225     473.377     146.998
  C      598.711     473.054     145.739
  O      598.090     472.367     144.932
  N      599.972     473.486     145.461
  C      600.833     474.079     146.349
  O      602.031     474.231     146.131
  C      600.246     474.461     147.635
  C      598.986     474.100     147.912
  O      593.310     475.327     152.534
  O      595.803     475.882     152.457
  H      595.623     475.935     153.420
  H      595.895     469.866     148.183
  H      600.357     473.214     144.561
  H      600.859     475.009     148.349
  H      598.539     474.338     148.870
  H      596.297     472.801     146.417
  H      597.939     470.963     147.858
  H      597.725     472.212     149.887
  H      594.765     472.565     149.152
  H      595.324     473.236     151.465
  H      596.660     474.257     150.865
  P      597.272     469.569     150.727
  C      598.434     467.623     149.516
  O      597.308     468.497     149.528
  O      597.005     468.985     152.075
  O      598.726     470.217     150.672
  H      599.203     470.011     151.518
  H      598.358     466.955     148.683
  H      598.457     467.058     150.425
  H      599.332     468.199     149.431

 6  7  8  9  10  11  12  13  14  15  16  27  31  32  33  34  35 0
 6-311+G(2d,p)
 ****
 36  37 0
 6-311+G(2d,p)
 ****
 1  2  3  4  5  17  18  19  20  21  22  23  24  25 0
 3-21G
 ****
 26  28  29  30  38  39  40  41  42  43  44  45 0
 3-21G
 ****


