%nproc=1
%NoSave
%Mem=1900MB
#P OB98/GEN NMR

erre ene a

0 1
  C      265.060      -3.860      74.122
  O      266.149      -4.085      73.249
  H      264.760      -2.810      74.046
  H      265.366      -4.065      75.151
  H      264.207      -4.491      73.852
  P      266.534      -5.615      72.953
  C      268.652      -5.580      74.458
  O      267.363      -6.131      74.229
  C      269.180      -6.015      75.822
  O      268.269      -5.604      76.867
  C      269.358      -7.523      75.975
  O      270.600      -7.960      75.438
  C      269.344      -7.654      77.489
  O      270.619      -7.239      78.027
  C      268.258      -6.642      77.888
  N      264.911      -8.995      80.889
  C      266.224      -8.642      81.131
  N      266.720      -8.966      82.347
  N      266.987      -8.027      80.266
  C      266.368      -7.785      79.086
  C      265.074      -8.091      78.722
  C      264.238      -8.756      79.697
  O      263.065      -9.081      79.535
  N      264.800      -7.692      77.442
  C      265.933      -7.162      77.022
  N      266.916      -7.196      77.980
  O      267.648      -5.483      71.806
  O      265.404      -6.485      72.514
  H      271.258      -7.949      77.826
  H      267.239      -5.695      70.945
  H      264.370      -9.475      81.590
  H      266.091      -6.736      76.041
  H      268.469      -6.161      78.848
  H      269.178      -8.681      77.822
  H      266.194      -9.460      83.053
  H      268.512      -8.078      75.549
  H      267.680      -8.713      82.549
  H      270.130      -5.494      75.994
  H      268.584      -4.486      74.423
  H      269.328      -5.923      73.669
  P      270.600      -9.254      74.493
  C      271.333     -10.905      76.357
  O      270.317     -10.526      75.438
  O      272.149      -9.410      74.115
  O      269.750      -9.159      73.275
  H      272.283      -9.214      73.167
  H      271.009     -11.759      76.914
  H      271.528     -10.094      77.028
  H      272.227     -11.147      75.821

 6  7  8  9  10  11  12  13  14  15  26  29  33  34 0
 6-311+G(2d,p)
 ****
 36  38  39  40  41 0
 6-311+G(2d,p)
 ****
 1  2  3  4  5  16  17  18  19  20  21  22  23  24  25 0
 3-21G
 ****
 27  28  30  31  32  35  37  42  43  44  45  46  47 0
 3-21G
 ****
 48  49 0
 3-21G
 ****


