%nproc=1
%NoSave
%Mem=1900MB
#P OB98/GEN NMR

erre ene a

0 1
  C      218.620     105.115    -122.063
  O      218.254     106.357    -121.479
  P      216.750     106.875    -121.708
  C      215.571     107.766    -123.884
  O      216.759     107.634    -123.118
  C      215.538     109.134    -124.575
  O      215.508     110.185    -123.584
  C      216.748     109.432    -125.454
  O      216.682     108.755    -126.694
  C      216.673     110.953    -125.550
  O      215.704     111.342    -126.538
  C      216.175     111.340    -124.140
  N      217.251     111.805    -123.257
  C      217.238     113.162    -122.944
  O      216.390     113.947    -123.370
  N      218.259     113.596    -122.137
  C      219.297     112.836    -121.672
  O      220.209     113.284    -120.987
  C      219.271     111.417    -122.062
  C      218.263     110.974    -122.826
  O      216.674     108.041    -120.614
  O      215.728     105.798    -121.556
  H      217.551     108.422    -120.433
  H      216.020     110.989    -127.392
  H      218.261     114.572    -121.873
  H      220.080     110.785    -121.724
  H      218.231     109.934    -123.131
  H      215.415     112.125    -124.207
  H      217.631     111.409    -125.832
  H      217.665     109.145    -124.926
  H      214.609     109.200    -125.164
  H      214.705     107.666    -123.225
  H      215.532     106.960    -124.630
  P      218.048     108.075    -127.220
  C      220.513     108.921    -127.439
  O      219.155     109.230    -127.191
  O      217.719     107.883    -128.778
  O      218.406     106.816    -126.500
  H      217.263     108.651    -129.169
  H      221.033     109.837    -127.726
  H      220.611     108.190    -128.248
  H      220.971     108.525    -126.529
  H      219.642     104.899    -121.830
  H      218.501     105.171    -123.125
  H      217.993     104.340    -121.674

 3  4  5  6  7  8  9  10  11  12  13  24  28  29  30  31  32 0
 6-311+G(2d,p)
 ****
 33  34 0
 6-311+G(2d,p)
 ****
 1  2  14  15  16  17  18  19  20  21  22  23  25  26  27 0
 3-21G
 ****
 35  36  37  38  39  40  41  42  43  44  45 0
 3-21G
 ****


