%nproc=1
%NoSave
%Mem=1900MB
#P OB98/GEN NMR

erre ene a

0 1
  C     1742.527     714.333    -317.156
  O     1742.702     715.626    -316.617
  P     1742.542     716.915    -317.565
  C     1740.451     717.959    -316.476
  O     1740.993     717.307    -317.625
  C     1740.296     719.450    -316.742
  O     1739.512     719.672    -317.953
  C     1739.539     720.178    -315.638
  O     1740.339     720.373    -314.479
  C     1739.173     721.501    -316.377
  O     1740.294     722.388    -316.391
  C     1738.875     720.963    -317.788
  N     1737.425     720.893    -318.053
  C     1736.944     721.798    -319.029
  O     1737.675     722.638    -319.531
  N     1735.616     721.708    -319.365
  C     1734.827     720.888    -318.737
  N     1733.547     720.814    -319.160
  C     1735.277     720.051    -317.617
  C     1736.594     720.079    -317.352
  O     1743.225     716.812    -318.894
  O     1743.169     718.102    -316.686
  H     1743.823     718.589    -317.244
  H     1740.578     722.481    -315.451
  H     1734.582     719.429    -317.074
  H     1737.034     719.473    -316.574
  H     1739.347     721.630    -318.534
  H     1738.343     722.013    -315.889
  H     1738.636     719.655    -315.382
  H     1741.268     719.886    -316.891
  H     1733.275     721.370    -319.963
  H     1741.140     717.820    -315.641
  H     1732.951     719.987    -318.976
  H     1739.472     717.502    -316.235
  P     1739.572     720.278    -313.070
  C     1740.534     717.947    -312.488
  O     1739.375     718.725    -312.723
  O     1738.117     720.781    -313.419
  O     1740.208     721.094    -311.992
  H     1737.761     721.316    -312.654
  H     1740.221     717.052    -311.914
  H     1741.274     718.482    -311.880
  H     1740.966     717.626    -313.446
  H     1742.670     713.603    -316.386
  H     1743.241     714.172    -317.937
  H     1741.538     714.243    -317.553

 3  4  5  6  7  8  9  10  11  12  13  24  27  28  29  30  32 0
 6-311+G(2d,p)
 ****
 34  35 0
 6-311+G(2d,p)
 ****
 1  2  14  15  16  17  18  19  20  21  22  23  25  26 0
 3-21G
 ****
 31  33  36  37  38  39  40  41  42  43  44  45  46 0
 3-21G
 ****


