%nproc=1
%NoSave
%Mem=1900MB
#P OB98/GEN NMR

erre ene a

0 1
  C      500.076     408.815      74.768
  O      499.475     407.552      74.978
  H      500.753     408.742      73.913
  H      500.653     409.104      75.650
  H      499.314     409.570      74.553
  P      498.303     407.487      76.076
  C      499.771     406.498      78.013
  O      498.725     406.309      77.077
  C      499.689     405.455      79.129
  O      498.527     405.738      79.946
  C      499.563     404.017      78.623
  O      500.305     403.161      79.492
  C      498.078     403.723      78.749
  O      497.817     402.323      78.846
  C      497.703     404.554      79.983
  N      496.282     404.894      80.012
  C      495.482     404.177      80.911
  O      495.981     403.298      81.611
  N      494.137     404.447      80.963
  C      493.621     405.304      80.139
  N      492.279     405.512      80.228
  C      494.418     406.045      79.138
  C      495.725     405.801      79.137
  O      497.101     406.857      75.229
  O      497.992     408.797      76.717
  H      498.264     401.984      79.653
  H      497.376     406.139      74.633
  H      493.938     406.741      78.463
  H      496.387     406.305      78.442
  H      497.946     404.006      80.903
  H      497.549     404.102      77.864
  H      499.912     403.886      77.597
  H      500.562     405.570      79.778
  H      491.765     404.971      80.912
  H      499.716     407.500      78.450
  H      491.765     406.117      79.601
  H      500.722     406.410      77.480
  P      501.793     402.734      79.090
  C      501.425     400.501      77.859
  O      501.887     401.132      79.044
  O      502.890     403.406      79.849
  O      501.870     403.123      77.531
  H      502.761     403.482      77.355
  H      501.540     399.441      77.951
  H      501.995     400.850      77.024
  H      500.392     400.736      77.709

 6  7  8  9  10  11  12  13  14  15  16  26  30  31  32  33  35 0
 6-311+G(2d,p)
 ****
 37  38 0
 6-311+G(2d,p)
 ****
 1  2  3  4  5  17  18  19  20  21  22  23  24  25 0
 3-21G
 ****
 27  28  29  34  36  39  40  41  42  43  44  45  46 0
 3-21G
 ****


