%nproc=1
%NoSave
%Mem=1900MB
#P OB98/GEN NMR

erre ene a

0 1
  C      -89.000      -4.830    -122.408
  O      -89.824      -5.801    -123.020
  H      -89.131      -4.898    -121.324
  H      -89.298      -3.830    -122.731
  H      -87.949      -5.005    -122.646
  P      -89.723      -6.016    -124.604
  C      -90.118      -8.533    -125.008
  O      -90.696      -7.237    -124.982
  C      -90.190      -9.187    -123.624
  O      -91.581      -9.464    -123.315
  C      -89.418     -10.505    -123.525
  O      -88.818     -10.600    -122.233
  C      -90.499     -11.559    -123.668
  O      -90.141     -12.790    -123.044
  C      -91.697     -10.869    -123.020
  N      -94.645     -14.966    -123.226
  C      -93.463     -14.754    -122.547
  N      -92.980     -15.791    -121.830
  N      -92.806     -13.623    -122.571
  C      -93.417     -12.666    -123.311
  C      -94.586     -12.752    -124.029
  C      -95.291     -14.016    -124.010
  O      -96.334     -14.268    -124.604
  N      -94.867     -11.570    -124.667
  C      -93.869     -10.773    -124.335
  N      -92.957     -11.394    -123.524
  O      -88.330      -6.142    -125.136
  O      -90.473      -4.749    -125.224
  H      -90.857     -13.431    -123.245
  H      -89.836      -4.109    -125.591
  H      -95.104     -15.860    -123.183
  H      -93.757      -9.745    -124.657
  H      -91.714     -10.996    -121.931
  H      -90.686     -11.756    -124.731
  H      -93.446     -16.683    -121.747
  H      -88.650     -10.593    -124.293
  H      -92.130     -15.653    -121.298
  H      -89.835      -8.466    -122.880
  H      -89.071      -8.437    -125.314
  H      -90.646      -9.150    -125.744
  P      -87.230     -10.411    -122.096
  C      -87.059     -10.412    -119.532
  O      -86.743     -11.104    -120.732
  O      -86.729      -9.022    -122.310
  O      -86.657     -11.406    -123.218
  H      -85.847     -11.015    -123.600
  H      -86.688     -10.964    -118.694
  H      -88.121     -10.309    -119.449
  H      -86.606      -9.443    -119.550

 6  7  8  9  10  11  12  13  14  15  26  29  33  34 0
 6-311+G(2d,p)
 ****
 36  38  39  40  41 0
 6-311+G(2d,p)
 ****
 1  2  3  4  5  16  17  18  19  20  21  22  23  24  25 0
 3-21G
 ****
 27  28  30  31  32  35  37  42  43  44  45  46  47 0
 3-21G
 ****
 48  49 0
 3-21G
 ****


