%nproc=1
%NoSave
%Mem=1900MB
#P OB98/GEN NMR

erre ene a

0 1
  C     -129.748     -23.819      91.616
  O     -128.549     -23.419      92.258
  P     -128.673     -22.483      93.555
  C     -127.492     -20.520      92.260
  O     -128.605     -20.976      93.013
  C     -127.459     -18.990      92.241
  O     -128.559     -18.484      91.457
  C     -127.602     -18.336      93.610
  O     -126.397     -18.399      94.354
  C     -128.039     -16.929      93.221
  O     -126.899     -16.145      92.826
  C     -128.942     -17.204      92.002
  N     -130.367     -17.170      92.323
  C     -130.961     -15.912      92.355
  O     -130.345     -14.870      92.129
  N     -132.293     -15.888      92.676
  C     -133.054     -16.965      93.023
  O     -134.232     -16.883      93.345
  C     -132.364     -18.264      93.003
  C     -131.075     -18.305      92.659
  O     -127.249     -22.736      94.237
  O     -129.852     -22.812      94.406
  H     -126.572     -22.980      93.582
  H     -127.214     -15.224      92.738
  H     -132.750     -14.989      92.684
  H     -132.934     -19.142      93.281
  H     -130.549     -19.253      92.649
  H     -128.749     -16.467      91.213
  H     -128.533     -16.398      94.040
  H     -128.406     -18.826      94.174
  H     -126.524     -18.674      91.760
  H     -127.576     -20.897      91.237
  H     -126.574     -20.918      92.706
  P     -126.518     -18.164      95.942
  C     -125.025     -16.048      96.295
  O     -126.321     -16.592      96.177
  O     -125.152     -18.817      96.457
  O     -127.751     -18.755      96.541
  H     -124.390     -18.595      95.896
  H     -125.075     -14.976      96.094
  H     -124.333     -16.509      95.587
  H     -124.658     -16.198      97.314
  H     -129.513     -24.435      90.773
  H     -130.282     -22.953      91.287
  H     -130.354     -24.371      92.304

 3  4  5  6  7  8  9  10  11  12  13  24  28  29  30  31  32 0
 6-311+G(2d,p)
 ****
 33  34 0
 6-311+G(2d,p)
 ****
 1  2  14  15  16  17  18  19  20  21  22  23  25  26  27 0
 3-21G
 ****
 35  36  37  38  39  40  41  42  43  44  45 0
 3-21G
 ****


