%nproc=1
%NoSave
%Mem=1900MB
#P OB98/GEN NMR

erre ene a

0 1
  C      129.144     -67.292    -262.631
  O      128.563     -68.566    -262.811
  P      129.086     -69.846    -262.001
  C      130.818     -70.637    -263.741
  O      130.617     -70.075    -262.450
  C      131.666     -71.912    -263.641
  O      133.032     -71.539    -263.283
  C      131.153     -72.894    -262.569
  O      130.939     -74.229    -263.033
  C      132.177     -72.745    -261.456
  O      132.221     -73.842    -260.561
  C      133.455     -72.451    -262.252
  N      134.517     -71.896    -261.417
  C      135.420     -72.798    -260.852
  O      135.385     -74.013    -261.020
  N      136.358     -72.264    -260.015
  C      136.417     -70.962    -259.601
  O      137.221     -70.571    -258.775
  C      135.416     -70.062    -260.198
  C      134.540     -70.558    -261.079
  O      128.232     -71.058    -262.101
  O      129.261     -69.284    -260.511
  H      132.319     -74.656    -261.090
  H      129.887     -68.545    -260.420
  H      137.019     -72.902    -259.601
  H      135.428     -69.031    -259.880
  H      133.788     -69.916    -261.536
  H      133.835     -73.347    -262.742
  H      131.905     -71.860    -260.860
  H      130.162     -72.588    -262.193
  H      131.680     -72.383    -264.632
  H      131.342     -69.907    -264.368
  H      129.852     -70.844    -264.214
  P      129.588     -75.062    -262.864
  C      130.373     -76.690    -260.987
  O      129.531     -75.615    -261.360
  O      129.321     -76.077    -263.912
  O      128.447     -73.934    -262.868
  H      127.619     -74.305    -263.219
  H      129.890     -77.252    -260.180
  H      131.326     -76.295    -260.622
  H      130.554     -77.366    -261.826
  H      128.651     -66.583    -263.262
  H      130.182     -67.334    -262.886
  H      129.039     -66.993    -261.609

 3  4  5  6  7  8  9  10  11  12  13  23  28  29  30  31  32 0
 6-311+G(2d,p)
 ****
 33  34 0
 6-311+G(2d,p)
 ****
 1  2  14  15  16  17  18  19  20  21  22  24  25  26  27 0
 3-21G
 ****
 35  36  37  38  39  40  41  42  43  44  45 0
 3-21G
 ****


