%nproc=1
%NoSave
%Mem=1900MB
#P OB98/GEN NMR

erre ene a

0 1
  C      155.699     210.772    -238.061
  O      154.326     210.954    -237.772
  H      155.788     210.193    -238.985
  H      156.187     210.223    -237.250
  H      156.188     211.742    -238.203
  P      153.981     211.767    -236.431
  C      153.029     210.208    -234.588
  O      154.189     210.734    -235.216
  C      152.608     208.901    -235.254
  O      153.731     207.998    -235.364
  C      151.511     208.142    -234.518
  O      150.228     208.654    -234.833
  C      151.724     206.731    -235.036
  O      151.125     206.548    -236.335
  C      153.254     206.648    -235.127
  N      154.660     202.379    -232.807
  C      154.087     202.576    -234.051
  N      153.800     201.458    -234.760
  N      153.818     203.751    -234.551
  C      154.126     204.772    -233.718
  C      154.708     204.710    -232.470
  C      155.032     203.400    -231.944
  O      155.600     203.166    -230.878
  N      154.882     205.965    -231.942
  C      154.376     206.778    -232.846
  N      153.887     206.100    -233.936
  O      152.389     211.939    -236.497
  O      154.670     213.083    -236.284
  H      151.289     205.642    -236.642
  H      152.139     212.771    -236.053
  H      154.862     201.451    -232.486
  H      154.337     207.855    -232.762
  H      153.586     206.030    -235.970
  H      151.273     205.980    -234.377
  H      153.677     200.560    -234.311
  H      151.688     208.160    -233.432
  H      153.361     201.592    -235.664
  H      152.283     209.142    -236.277
  H      152.215     210.935    -234.678
  H      153.241     210.037    -233.526
  P      149.035     208.378    -233.795
  C      147.218     206.793    -234.782
  O      148.475     206.911    -234.129
  O      147.864     209.342    -234.315
  O      149.379     208.630    -232.368
  H      147.194     209.457    -233.613
  H      146.990     205.758    -234.932
  H      147.260     207.290    -235.729
  H      146.458     207.242    -234.177

 6  7  8  9  10  11  12  13  14  15  26  29  33  34 0
 6-311+G(2d,p)
 ****
 36  38  39  40  41 0
 6-311+G(2d,p)
 ****
 1  2  3  4  5  16  17  18  19  20  21  22  23  24  25 0
 3-21G
 ****
 27  28  30  31  32  35  37  42  43  44  45  46  47 0
 3-21G
 ****
 48  49 0
 3-21G
 ****


