%nproc=1
%NoSave
%Mem=1900MB
#P OB98/GEN NMR

erre ene a

0 1
  C     -420.424    -244.158     -84.063
  O     -421.357    -244.685     -83.141
  H     -419.782    -243.444     -83.542
  H     -420.944    -243.639     -84.873
  H     -419.805    -244.960     -84.472
  P     -422.441    -245.718     -83.719
  C     -422.147    -247.014     -81.486
  O     -423.050    -246.498     -82.455
  C     -422.929    -247.744     -80.398
  O     -423.651    -246.791     -79.590
  C     -423.981    -248.707     -80.930
  O     -423.416    -249.930     -81.369
  C     -424.864    -248.873     -79.704
  O     -424.340    -249.866     -78.808
  C     -424.813    -247.467     -79.066
  N     -426.040    -246.713     -79.300
  C     -427.194    -247.245     -78.733
  O     -427.201    -248.284     -78.072
  N     -428.350    -246.561     -78.982
  C     -428.473    -245.444     -79.757
  O     -429.551    -244.921     -79.998
  C     -427.215    -244.918     -80.320
  C     -426.077    -245.571     -80.077
  O     -421.537    -246.821     -84.448
  O     -423.456    -245.122     -84.635
  H     -421.561    -246.682     -85.413
  H     -424.493    -250.728     -79.237
  H     -429.200    -246.937     -78.587
  H     -427.277    -244.029     -80.933
  H     -425.142    -245.214     -80.498
  H     -424.667    -247.546     -77.980
  H     -425.870    -249.192     -79.975
  H     -424.565    -248.230     -81.724
  H     -422.213    -248.270     -79.753
  H     -421.587    -246.190     -81.033
  H     -421.442    -247.689     -81.982
  P     -423.541    -250.316     -82.920
  C     -421.287    -251.609     -82.533
  O     -422.552    -251.560     -83.164
  O     -422.791    -249.084     -83.609
  O     -424.943    -250.535     -83.376
  H     -422.040    -248.757     -83.086
  H     -420.781    -252.508     -82.818
  H     -421.417    -251.595     -81.471
  H     -420.706    -250.762     -82.833

 6  7  8  9  10  11  12  13  14  15  16  27  31  32  33  34  35 0
 6-311+G(2d,p)
 ****
 36  37 0
 6-311+G(2d,p)
 ****
 1  2  3  4  5  17  18  19  20  21  22  23  24  25 0
 3-21G
 ****
 26  28  29  30  38  39  40  41  42  43  44  45 0
 3-21G
 ****


