%nproc=1
%NoSave
%Mem=1900MB
#P OB98/GEN NMR

erre ene a

0 1
  C      441.749     444.201    -248.043
  O      442.482     445.370    -247.661
  P      443.644     445.247    -246.569
  C      445.627     446.289    -247.864
  O      445.058     445.109    -247.312
  C      445.791     446.135    -249.377
  O      444.509     446.073    -250.047
  C      446.502     447.321    -250.016
  O      447.876     447.475    -249.729
  C      446.111     447.179    -251.480
  O      446.952     446.243    -252.159
  C      444.669     446.630    -251.365
  N      443.657     447.653    -251.638
  C      443.352     447.872    -252.978
  O      443.922     447.290    -253.904
  N      442.397     448.818    -253.229
  C      441.750     449.571    -252.288
  O      440.916     450.424    -252.567
  C      442.129     449.313    -250.894
  C      443.049     448.380    -250.631
  O      443.405     444.267    -245.467
  O      443.721     446.740    -245.971
  H      446.773     446.329    -253.116
  H      443.845     446.668    -245.007
  H      442.158     448.981    -254.193
  H      441.641     449.895    -250.120
  H      443.343     448.172    -249.606
  H      444.515     445.812    -252.078
  H      446.197     448.130    -252.016
  H      446.022     448.242    -249.653
  H      446.313     445.198    -249.577
  H      446.597     446.486    -247.397
  H      444.985     447.141    -247.616
  P      448.430     448.504    -248.631
  C      450.566     447.281    -247.816
  O      449.247     447.681    -247.526
  O      447.494     449.562    -248.146
  O      449.617     449.219    -249.443
  H      449.687     450.146    -249.144
  H      450.957     446.718    -246.965
  H      451.205     448.152    -247.982
  H      450.582     446.631    -248.700
  H      441.016     444.464    -248.777
  H      441.262     443.789    -247.184
  H      442.421     443.477    -248.453

 3  4  5  6  7  8  9  10  11  12  13  23  28  29  30  31  32 0
 6-311+G(2d,p)
 ****
 33  34 0
 6-311+G(2d,p)
 ****
 1  2  14  15  16  17  18  19  20  21  22  24  25  26  27 0
 3-21G
 ****
 35  36  37  38  39  40  41  42  43  44  45 0
 3-21G
 ****


