%nproc=1
%NoSave
%Mem=1900MB
#P OB98/GEN NMR

erre ene a

0 1
  C      -33.112      49.809     -26.312
  O      -31.926      50.480     -25.935
  H      -33.026      48.759     -26.020
  H      -33.248      49.859     -27.395
  H      -33.980      50.242     -25.808
  P      -31.841      52.068     -26.129
  C      -30.796      51.517     -28.420
  O      -31.712      52.338     -27.704
  C      -30.620      52.050     -29.839
  O      -31.867      51.963     -30.565
  C      -30.204      53.516     -29.901
  O      -28.836      53.666     -29.578
  C      -30.572      53.849     -31.339
  O      -29.572      53.370     -32.252
  C      -31.889      53.055     -31.513
  N      -33.081      53.888     -31.332
  C      -34.149      53.624     -32.182
  O      -34.121      52.752     -33.049
  N      -35.244      54.434     -32.033
  C      -35.332      55.511     -31.200
  O      -36.238      56.337     -31.255
  C      -34.203      55.695     -30.274
  C      -33.139      54.897     -30.390
  O      -30.834      52.771     -25.283
  O      -33.329      52.567     -25.803
  H      -33.357      52.929     -24.896
  H      -29.930      53.509     -33.151
  H      -36.007      54.282     -32.677
  H      -34.263      56.501     -29.552
  H      -32.284      55.035     -29.738
  H      -31.937      52.605     -32.513
  H      -30.669      54.923     -31.505
  H      -30.831      54.113     -29.228
  H      -29.884      51.416     -30.354
  H      -31.199      50.498     -28.460
  H      -29.839      51.500     -27.888
  P      -28.335      54.854     -28.631
  C      -28.197      56.607     -30.497
  O      -28.819      56.241     -29.273
  O      -26.883      54.811     -28.276
  O      -29.246      54.726     -27.321
  H      -28.668      54.685     -26.533
  H      -28.593      57.543     -30.832
  H      -28.388      55.854     -31.233
  H      -27.142      56.699     -30.347

 6  7  8  9  10  11  12  13  14  15  16  27  31  32  33  34  35 0
 6-311+G(2d,p)
 ****
 36  37 0
 6-311+G(2d,p)
 ****
 1  2  3  4  5  17  18  19  20  21  22  23  24  25 0
 3-21G
 ****
 26  28  29  30  38  39  40  41  42  43  44  45 0
 3-21G
 ****


