%nproc=1
%NoSave
%Mem=1900MB
#P OB98/GEN NMR

erre ene a

0 1
  C     -239.997     377.152    -334.727
  O     -239.412     378.360    -335.170
  H     -239.673     376.345    -335.391
  H     -241.093     377.212    -334.759
  H     -239.666     376.923    -333.711
  P     -239.934     379.736    -334.521
  C     -237.486     380.570    -334.428
  O     -238.815     380.835    -334.885
  C     -236.455     381.198    -335.373
  O     -236.349     380.419    -336.584
  C     -236.817     382.605    -335.831
  O     -236.750     383.581    -334.806
  C     -235.969     382.764    -337.081
  O     -234.644     383.225    -336.818
  C     -235.928     381.314    -337.632
  N     -236.724     381.156    -338.841
  C     -236.093     381.507    -340.033
  O     -234.937     381.939    -340.097
  N     -236.845     381.375    -341.168
  C     -238.162     380.991    -341.215
  O     -238.803     380.934    -342.266
  C     -238.779     380.663    -339.925
  C     -238.042     380.763    -338.807
  O     -240.273     379.678    -333.056
  O     -241.169     380.150    -335.449
  H     -234.132     383.107    -337.641
  H     -241.738     380.826    -335.006
  H     -236.412     381.607    -342.049
  H     -239.822     380.361    -339.917
  H     -238.477     380.530    -337.839
  H     -234.889     381.036    -337.880
  H     -236.417     383.482    -337.781
  H     -237.863     382.589    -336.163
  H     -235.478     381.183    -334.872
  H     -237.350     379.483    -334.418
  H     -237.359     380.957    -333.414
  P     -237.488     384.994    -334.893
  C     -237.111     385.403    -332.354
  O     -236.969     385.909    -333.673
  O     -238.957     384.971    -335.200
  O     -236.750     385.664    -336.161
  H     -237.408     386.212    -336.635
  H     -236.725     386.116    -331.655
  H     -236.569     384.485    -332.264
  H     -238.146     385.227    -332.149

 6  7  8  9  10  11  12  13  14  15  16  26  31  32  33  34  35 0
 6-311+G(2d,p)
 ****
 36  37 0
 6-311+G(2d,p)
 ****
 1  2  3  4  5  17  18  19  20  21  22  23  24  25 0
 3-21G
 ****
 27  28  29  30  38  39  40  41  42  43  44  45 0
 3-21G
 ****


