%nproc=1
%NoSave
%Mem=1900MB
#P OB98/GEN NMR

erre ene a

0 1
  C      803.143    -501.694     160.992
  O      804.264    -502.533     160.779
  H      802.892    -501.202     160.047
  H      803.383    -500.929     161.738
  H      802.284    -502.282     161.324
  P      804.782    -503.365     162.051
  C      805.301    -505.167     160.239
  O      805.685    -504.559     161.461
  C      805.842    -506.598     160.162
  O      807.302    -506.553     160.301
  C      805.323    -507.526     161.271
  O      805.317    -508.872     160.766
  C      806.409    -507.386     162.329
  O      806.301    -508.399     163.306
  C      807.635    -507.395     161.430
  N      811.257    -508.415     164.900
  C      810.221    -509.149     164.444
  N      809.306    -508.813     163.505
  C      809.553    -507.589     163.019
  C      810.575    -506.723     163.381
  C      811.461    -507.177     164.376
  N      812.498    -506.433     164.854
  N      810.497    -505.541     162.655
  C      809.452    -505.692     161.873
  N      808.847    -506.911     162.059
  O      803.459    -504.105     162.573
  O      805.432    -502.561     163.121
  H      805.394    -508.428     163.673
  H      803.046    -503.581     163.284
  H      810.114    -510.139     164.887
  H      809.080    -504.967     161.154
  H      807.854    -508.392     161.032
  H      806.321    -506.433     162.857
  H      804.322    -507.264     161.623
  H      805.642    -507.011     159.166
  H      805.689    -504.577     159.411
  H      804.198    -505.195     160.176
  H      813.081    -506.824     165.582
  H      812.656    -505.497     164.486
  P      803.918    -509.567     160.404
  C      804.917    -510.947     158.418
  O      804.214    -510.955     159.647
  O      803.383    -508.645     159.210
  O      802.915    -509.626     161.515
  H      802.405    -508.658     159.192
  H      805.022    -511.950     158.061
  H      805.886    -510.517     158.564
  H      804.374    -510.368     157.700

 6  7  8  9  10  11  12  13  14  15  25  28  32  33  34  35 0
 6-311+G(2d,p)
 ****
 36  37  40 0
 6-311+G(2d,p)
 ****
 1  2  3  4  5  16  17  18  19  20  21  22  23  24 0
 3-21G
 ****
 26  27  29  30  31  38  39 41  42  43  44  45  46  47  48 0
 3-21G
 ****


