%nproc=1
%NoSave
%Mem=1900MB
#P OB98/GEN NMR

erre ene a

0 1
  C     -431.484      38.586     364.335
  O     -431.828      37.304     364.834
  P     -433.304      37.109     365.436
  C     -432.787      37.312     367.977
  O     -433.338      37.923     366.818
  C     -433.677      37.578     369.188
  O     -433.446      38.903     369.709
  C     -435.169      37.519     368.888
  O     -435.661      36.192     368.861
  C     -435.735      38.273     370.084
  O     -435.792      37.403     371.231
  C     -434.684      39.368     370.297
  N     -435.925      44.195     371.204
  C     -435.406      43.236     372.056
  N     -435.255      43.603     373.346
  N     -435.065      42.030     371.680
  C     -435.282      41.804     370.360
  C     -435.787      42.671     369.414
  C     -436.167      43.995     369.852
  O     -436.681      44.867     369.154
  N     -435.849      42.081     368.182
  C     -435.381      40.862     368.372
  N     -435.070      40.633     369.686
  O     -433.311      35.580     365.907
  O     -434.412      37.407     364.481
  H     -436.295      36.611     370.958
  H     -434.230      35.275     366.036
  H     -436.177      45.105     371.543
  H     -435.274      40.114     367.601
  H     -434.495      39.549     371.361
  H     -436.749      38.640     369.916
  H     -435.558      44.494     373.715
  H     -435.412      38.063     367.969
  H     -434.937      42.906     374.010
  H     -433.410      36.854     369.967
  H     -431.790      37.718     368.156
  H     -432.690      36.235     367.805
  P     -436.499      35.755     367.561
  C     -438.718      35.936     368.901
  O     -437.968      36.355     367.780
  O     -436.691      34.182     367.763
  O     -435.838      36.086     366.265
  H     -436.801      33.738     366.903
  H     -439.557      36.620     369.042
  H     -438.104      35.939     369.809
  H     -439.109      34.928     368.731
  H     -430.479      38.568     363.969
  H     -431.565      39.308     365.121
  H     -432.149      38.849     363.539

 3  4  5  6  7  8  9  10  11  12  23  26  30  31 0
 6-311+G(2d,p)
 ****
 33  35  36  37  38 0
 6-311+G(2d,p)
 ****
 1  2  13  14  15  16  17  18  19  20  21  22  24  25 0
 3-21G
 ****
 27  28  29  32  34  39  40  41  42  43  44  45  46  47  48  49 0
 3-21G
 ****


