%nproc=1
%NoSave
%Mem=1900MB
#P OB98/GEN NMR

erre ene a

0 1
  C     -143.857      49.024     277.872
  O     -142.774      48.820     276.981
  P     -143.073      47.950     275.660
  C     -142.058      45.543     275.804
  O     -143.124      46.420     276.139
  C     -141.244      45.222     277.060
  O     -142.122      44.861     278.144
  C     -140.273      44.059     276.894
  O     -139.080      44.494     276.264
  C     -140.082      43.616     278.342
  O     -139.122      44.456     279.018
  C     -141.487      43.805     278.923
  N     -143.878      40.380     281.772
  C     -142.992      41.375     282.136
  N     -142.744      41.500     283.460
  N     -142.406      42.176     281.286
  C     -142.742      41.925     279.996
  C     -143.595      40.959     279.505
  C     -144.276      40.118     280.464
  O     -145.144      39.289     280.201
  N     -143.668      40.996     278.138
  C     -142.881      42.001     277.804
  N     -142.313      42.611     278.894
  O     -141.705      48.058     274.841
  O     -144.261      48.387     274.859
  H     -138.228      44.253     278.687
  H     -141.772      48.739     274.141
  H     -144.317      39.803     282.473
  H     -142.709      42.339     276.793
  H     -141.461      44.148     279.962
  H     -139.700      42.592     278.412
  H     -143.139      40.907     284.171
  H     -140.739      43.251     276.319
  H     -142.087      42.225     283.746
  H     -140.706      46.133     277.357
  H     -141.407      46.034     275.069
  H     -142.467      44.634     275.359
  P     -138.292      43.432     275.355
  C     -136.249      42.473     276.643
  O     -137.626      42.364     276.345
  O     -137.047      44.276     274.805
  O     -139.097      42.856     274.238
  H     -136.839      43.997     273.892
  H     -136.071      42.078     277.645
  H     -135.907      43.512     276.607
  H     -135.675      41.884     275.922
  H     -143.529      49.613     278.703
  H     -144.213      48.078     278.224
  H     -144.647      49.535     277.362

 3  4  5  6  7  8  9  10  11  12  23  26  30  31 0
 6-311+G(2d,p)
 ****
 33  35  36  37  38 0
 6-311+G(2d,p)
 ****
 1  2  13  14  15  16  17  18  19  20  21  22  24  25 0
 3-21G
 ****
 27  28  29  32  34  39  40  41  42  43  44  45  46  47  48  49 0
 3-21G
 ****


