%nproc=1
%NoSave
%Mem=1900MB
#P OB98/GEN NMR

erre ene a

0 1
  C     1245.566    -896.710    -451.709
  O     1244.532    -897.530    -452.177
  P     1243.502    -898.200    -451.164
  C     1241.286    -896.980    -451.685
  O     1242.368    -897.120    -450.767
  C     1240.349    -895.820    -451.410
  O     1239.722    -895.960    -450.115
  C     1241.052    -894.430    -451.402
  O     1240.066    -893.520    -451.933
  C     1241.318    -894.190    -449.912
  O     1241.578    -892.820    -449.637
  C     1240.064    -894.790    -449.289
  N     1240.278    -895.150    -447.898
  C     1240.354    -894.080    -446.966
  O     1240.286    -892.910    -447.391
  N     1240.568    -894.380    -445.654
  C     1240.720    -895.660    -445.302
  N     1240.911    -895.840    -443.964
  C     1240.735    -896.750    -446.237
  C     1240.484    -896.470    -447.492
  O     1244.121    -898.910    -450.003
  O     1242.678    -899.240    -452.083
  H     1241.315    -892.660    -448.692
  H     1242.406    -900.000    -451.517
  H     1240.887    -897.760    -445.895
  H     1240.458    -897.200    -448.249
  H     1239.216    -894.090    -449.380
  H     1242.221    -894.780    -449.641
  H     1241.938    -894.380    -452.028
  H     1239.571    -895.850    -452.168
  H     1240.956    -895.050    -443.346
  H     1240.718    -897.930    -451.669
  H     1241.206    -896.740    -443.589
  H     1241.707    -896.900    -452.731
  P     1240.150    -892.870    -453.374
  C     1238.417    -894.470    -454.373
  O     1239.750    -894.050    -454.417
  O     1241.430    -892.190    -453.689
  O     1238.861    -891.880    -453.471
  H     1239.042    -891.230    -454.199
  H     1238.182    -895.100    -455.251
  H     1237.680    -893.650    -454.358
  H     1238.201    -895.080    -453.489
  H     1246.145    -896.359    -452.537
  H     1246.193    -897.270    -451.047
  H     1245.150    -895.875    -451.185

 3  4  5  6  7  8  9  10  11  12  13  23  27  28  29  30  32 0
 6-311+G(2d,p)
 ****
 34  35 0
 6-311+G(2d,p)
 ****
 1  2  14  15  16  17  18  19  20  21  22  24  25  26 0
 3-21G
 ****
 31  33  36  37  38  39  40  41  42  43  44  45  46 0
 3-21G
 ****


