%nproc=1
%NoSave
%Mem=1900MB
#P OB98/GEN NMR

erre ene a

0 1
  C      258.343    1107.771     725.603
  O      258.175    1109.159     725.368
  H      259.371    1107.606     725.957
  H      258.181    1107.223     724.681
  H      257.648    1107.420     726.377
  P      256.719    1109.625     724.890
  C      256.747    1109.837     722.299
  O      256.510    1109.019     723.414
  C      256.500    1109.051     720.999
  O      255.070    1108.763     720.886
  C      256.897    1109.806     719.710
  O      257.302    1108.853     718.705
  C      255.581    1110.425     719.306
  O      255.628    1110.887     717.970
  C      254.627    1109.303     719.614
  N      249.997    1108.568     717.604
  C      251.193    1107.950     717.379
  N      252.392    1108.207     717.955
  C      252.250    1109.164     718.880
  C      251.125    1109.896     719.199
  C      249.957    1109.554     718.514
  N      248.750    1110.199     718.692
  N      251.404    1110.848     720.189
  C      252.680    1110.713     720.434
  N      253.238    1109.696     719.661
  O      256.899    1111.202     724.617
  O      255.590    1109.353     725.850
  H      255.837    1110.163     717.358
  H      256.671    1111.698     725.411
  H      251.199    1107.131     716.644
  H      253.274    1111.298     721.135
  H      254.701    1108.478     718.897
  H      255.336    1111.319     719.924
  H      257.722    1110.533     719.879
  H      257.016    1108.077     721.059
  H      257.784    1110.186     722.320
  H      256.076    1110.696     722.326
  H      247.957    1109.907     718.140
  H      248.689    1110.967     719.344
  P      258.832    1108.446     718.604
  C      259.799    1109.975     716.727
  O      259.720    1109.691     718.104
  O      258.851    1107.491     717.298
  O      259.398    1107.700     719.769
  H      259.351    1106.695     717.473
  H      260.426    1110.828     716.574
  H      258.819    1110.180     716.348
  H      260.211    1109.133     716.212

 6  7  8  9  10  11  12  13  14  15  25  28  32  33  34  35 0
 6-311+G(2d,p)
 ****
 36  37  40 0
 6-311+G(2d,p)
 ****
 1  2  3  4  5  16  17  18  19  20  21  22  23  24 0
 3-21G
 ****
 26  27  29  30  31  38  39 41  42  43  44  45  46  47  48 0
 3-21G
 ****


