%nproc=1
%NoSave
%Mem=1900MB
#P OB98/GEN NMR

erre ene a

0 1
  C     -106.790     140.724    -129.095
  O     -108.162     140.381    -129.065
  H     -106.527     141.031    -130.111
  H     -106.186     139.855    -128.824
  H     -106.583     141.551    -128.411
  P     -108.802     140.097    -127.621
  C     -107.698     137.749    -127.510
  O     -107.847     139.024    -126.903
  C     -107.555     136.668    -126.443
  O     -106.676     137.117    -125.388
  C     -108.866     136.279    -125.766
  O     -109.598     135.335    -126.538
  C     -108.343     135.651    -124.486
  O     -107.850     134.322    -124.760
  C     -107.178     136.584    -124.131
  N     -106.665     138.585    -119.499
  C     -106.141     137.418    -120.027
  N     -105.377     136.673    -119.198
  N     -106.347     137.016    -121.254
  C     -107.140     137.854    -121.964
  C     -107.718     139.035    -121.554
  C     -107.473     139.474    -120.198
  O     -107.893     140.509    -119.688
  N     -108.446     139.615    -122.559
  C     -108.328     138.774    -123.569
  N     -107.550     137.687    -123.259
  O     -110.119     139.248    -127.960
  O     -109.129     141.309    -126.816
  H     -108.631     133.755    -124.902
  H     -110.822     139.493    -127.328
  H     -106.484     138.841    -118.545
  H     -108.781     138.909    -124.543
  H     -106.352     136.055    -123.644
  H     -109.112     135.553    -123.718
  H     -105.219     136.901    -118.229
  H     -109.469     137.159    -125.520
  H     -104.955     135.832    -119.571
  H     -107.086     135.791    -126.910
  H     -106.805     137.753    -128.142
  H     -108.575     137.548    -128.135
  P     -111.141     135.665    -126.847
  C     -111.620     135.241    -124.330
  O     -111.775     136.113    -125.443
  O     -111.777     134.215    -127.094
  O     -111.371     136.583    -127.999
  H     -112.587     134.294    -127.633
  H     -112.092     135.671    -123.471
  H     -110.578     135.098    -124.131
  H     -112.073     134.297    -124.550

 6  7  8  9  10  11  12  13  14  15  26  29  33  34 0
 6-311+G(2d,p)
 ****
 36  38  39  40  41 0
 6-311+G(2d,p)
 ****
 1  2  3  4  5  16  17  18  19  20  21  22  23  24  25 0
 3-21G
 ****
 27  28  30  31  32  35  37  42  43  44  45  46  47 0
 3-21G
 ****
 48  49 0
 3-21G
 ****


