%nproc=1
%NoSave
%Mem=1900MB
#P OB98/GEN NMR

erre ene a

0 1
  C      -24.762     282.945     165.507
  O      -25.504     283.767     166.389
  H      -23.701     283.189     165.618
  H      -25.058     283.139     164.475
  H      -24.905     281.888     165.746
  P      -27.080     283.518     166.536
  C      -27.047     281.365     167.963
  O      -27.317     282.763     167.936
  C      -27.032     280.846     169.408
  O      -26.035     281.587     170.159
  C      -28.375     280.999     170.132
  O      -28.584     279.867     170.981
  C      -28.180     282.246     170.976
  O      -29.021     282.257     172.129
  C      -26.690     282.169     171.304
  N      -25.088     285.238     174.996
  C      -25.501     283.921     175.048
  N      -25.513     283.337     176.267
  N      -25.883     283.238     174.001
  C      -25.795     283.938     172.840
  C      -25.397     285.243     172.654
  C      -25.004     286.000     173.829
  O      -24.640     287.171     173.846
  N      -25.468     285.608     171.330
  C      -25.907     284.520     170.717
  N      -26.133     283.490     171.591
  O      -27.731     282.862     165.355
  O      -27.687     284.975     166.805
  H      -28.771     283.047     172.657
  H      -28.136     285.319     166.011
  H      -24.817     285.721     175.833
  H      -26.084     284.434     169.652
  H      -26.484     281.543     172.180
  H      -28.405     283.140     170.378
  H      -25.216     283.796     177.115
  H      -29.210     281.098     169.439
  H      -25.790     282.365     176.333
  H      -26.710     279.795     169.395
  H      -26.065     281.198     167.501
  H      -27.809     280.838     167.382
  P      -29.907     278.978     170.788
  C      -29.068     276.876     169.571
  O      -29.499     277.424     170.812
  O      -30.786     279.381     169.649
  O      -30.667     279.161     172.193
  H      -31.633     279.161     172.033
  H      -28.823     275.843     169.703
  H      -28.204     277.406     169.228
  H      -29.852     276.967     168.849

 6  7  8  9  10  11  12  13  14  15  26  29  33  34 0
 6-311+G(2d,p)
 ****
 36  38  39  40  41 0
 6-311+G(2d,p)
 ****
 1  2  3  4  5  16  17  18  19  20  21  22  23  24  25 0
 3-21G
 ****
 27  28  30  31  32  35  37  42  43  44  45  46  47 0
 3-21G
 ****
 48  49 0
 3-21G
 ****


