%nproc=1
%NoSave
%Mem=1900MB
#P OB98/GEN NMR

erre ene a

0 1
  C       83.101     -81.098     148.943
  O       84.338     -80.673     148.408
  H       82.651     -80.268     149.492
  H       83.266     -81.929     149.634
  H       82.416     -81.406     148.147
  P       85.009     -81.617     147.296
  C       83.280     -81.231     145.401
  O       83.814     -82.134     146.356
  C       82.193     -81.914     144.577
  O       81.444     -80.937     143.822
  C       82.716     -82.929     143.565
  O       82.952     -84.194     144.168
  C       81.543     -82.996     142.602
  O       80.489     -83.802     143.173
  C       81.101     -81.527     142.537
  N       80.317     -78.842     138.305
  C       79.421     -79.546     139.086
  N       78.135     -79.542     138.676
  N       79.754     -80.202     140.168
  C       81.079     -80.139     140.443
  C       82.065     -79.480     139.745
  C       81.679     -78.747     138.561
  O       82.434     -78.098     137.841
  N       83.292     -79.645     140.328
  C       83.054     -80.421     141.366
  N       81.726     -80.751     141.479
  O       85.419     -82.917     148.139
  O       86.187     -81.033     146.592
  H       80.889     -84.652     143.432
  H       86.379     -82.889     148.315
  H       80.010     -78.363     137.477
  H       83.801     -80.763     142.068
  H       80.018     -81.425     142.407
  H       81.808     -83.452     141.647
  H       77.814     -79.076     137.842
  H       83.604     -82.558     143.039
  H       77.461     -80.048     139.236
  H       81.494     -82.391     145.275
  H       84.084     -80.895     144.737
  H       82.862     -80.364     145.924
  P       83.962     -85.205     143.441
  C       86.118     -84.269     144.537
  O       85.380     -84.457     143.337
  O       83.429     -85.205     141.931
  O       84.000     -86.583     144.004
  H       83.040     -86.075     141.716
  H       87.034     -83.761     144.317
  H       86.334     -85.221     144.975
  H       85.541     -83.683     145.222

 6  7  8  9  10  11  12  13  14  15  26  29  33  34 0
 6-311+G(2d,p)
 ****
 36  38  39  40  41 0
 6-311+G(2d,p)
 ****
 1  2  3  4  5  16  17  18  19  20  21  22  23  24  25 0
 3-21G
 ****
 27  28  30  31  32  35  37  42  43  44  45  46  47 0
 3-21G
 ****
 48  49 0
 3-21G
 ****


