%nproc=1
%NoSave
%Mem=1900MB
#P OB98/GEN NMR

erre ene a

0 1
  C     -608.190     342.587    -729.863
  O     -608.303     342.768    -731.261
  H     -608.927     341.847    -729.545
  H     -608.379     343.527    -729.344
  H     -607.188     342.219    -729.611
  P     -607.281     343.806    -731.936
  C     -605.671     341.845    -732.521
  O     -606.419     342.965    -732.993
  C     -604.799     341.305    -733.653
  O     -605.614     340.596    -734.611
  C     -604.076     342.390    -734.448
  O     -602.935     342.884    -733.771
  C     -603.750     341.632    -735.732
  O     -602.557     340.852    -735.594
  C     -604.965     340.719    -735.898
  N     -606.221     340.649    -740.849
  C     -605.286     339.979    -740.145
  N     -605.024     340.040    -738.822
  C     -605.868     340.896    -738.215
  C     -606.877     341.646    -738.796
  C     -607.041     341.506    -740.187
  N     -607.984     342.207    -740.906
  N     -607.507     342.426    -737.851
  C     -606.896     342.151    -736.713
  N     -605.909     341.223    -736.880
  O     -606.247     344.114    -730.753
  O     -607.908     345.055    -732.473
  H     -602.693     340.301    -734.795
  H     -606.475     344.970    -730.337
  H     -604.661     339.302    -740.728
  H     -607.125     342.596    -735.751
  H     -604.684     339.703    -736.210
  H     -603.609     342.329    -736.558
  H     -604.773     343.200    -734.684
  H     -604.077     340.588    -733.224
  H     -606.363     341.060    -732.192
  H     -605.056     342.160    -731.674
  H     -608.000     342.104    -741.904
  H     -608.518     342.924    -740.434
  P     -602.586     344.437    -733.958
  C     -602.619     345.014    -731.407
  O     -601.865     344.927    -732.615
  O     -604.013     345.168    -733.902
  O     -601.839     344.762    -735.211
  H     -604.014     345.929    -734.510
  H     -601.986     345.355    -730.615
  H     -603.010     344.049    -731.160
  H     -603.427     345.703    -731.540

 6  7  8  9  10  11  12  13  14  15  25  28  32  33  34  35 0
 6-311+G(2d,p)
 ****
 36  37  40 0
 6-311+G(2d,p)
 ****
 1  2  3  4  5  16  17  18  19  20  21  22  23  24 0
 3-21G
 ****
 26  27  29  30  31  38  39 41  42  43  44  45  46  47  48 0
 3-21G
 ****


