%nproc=1
%NoSave
%Mem=1900MB
#P OB98/GEN NMR

erre ene a

0 1
  C       21.152      45.429     -15.149
  O       21.477      44.062     -15.304
  H       20.158      45.534     -14.705
  H       21.884      45.893     -14.480
  H       21.183      45.938     -16.117
  P       20.496      43.186     -16.225
  C       18.826      42.688     -14.291
  O       19.047      43.322     -15.544
  C       17.516      41.909     -14.347
  O       16.403      42.818     -14.508
  C       17.429      40.933     -15.515
  O       18.084      39.705     -15.251
  C       15.925      40.746     -15.615
  O       15.474      39.862     -14.573
  C       15.417      42.174     -15.362
  N       12.054      43.984     -18.774
  C       11.890      43.281     -17.630
  N       12.836      42.855     -16.767
  C       14.056      43.236     -17.175
  C       14.379      43.961     -18.311
  C       13.308      44.340     -19.140
  N       13.473      45.031     -20.322
  N       15.746      44.140     -18.404
  C       16.235      43.548     -17.333
  N       15.256      42.958     -16.575
  O       20.908      41.675     -15.893
  O       20.525      43.494     -17.687
  H       15.687      40.291     -13.722
  H       20.534      41.067     -16.558
  H       10.866      43.022     -17.379
  H       17.284      43.509     -17.067
  H       14.456      42.193     -14.833
  H       15.616      40.304     -16.567
  H       17.796      41.387     -16.445
  H       17.383      41.388     -13.389
  H       18.767      43.452     -13.508
  H       12.665      45.125     -20.914
  H       14.408      45.170     -20.674
  H       19.659      42.011     -14.073
  P       18.817      38.975     -16.480
  C       16.880      37.319     -16.990
  O       17.653      38.426     -17.441
  O       19.402      37.645     -15.811
  O       19.879      39.788     -17.146
  H       20.236      37.374     -16.242
  H       16.150      37.069     -17.731
  H       16.387      37.577     -16.076
  H       17.522      36.479     -16.824

 6  7  8  9  10  11  12  13  14  15  25  28  32  33  34  35 0
 6-311+G(2d,p)
 ****
 36  39  40 0
 6-311+G(2d,p)
 ****
 1  2  3  4  5  16  17  18  19  20  21  22  23  24 0
 3-21G
 ****
 26  27  29  30  31  37  38  41  42  43  44  45  46  47 0
 3-21G
 ****
 48 0
 3-21G
 ****


