%nproc=1
%NoSave
%Mem=1900MB
#P OB98/GEN NMR

erre ene a

0 1
  C      130.681     400.123    -345.615
  O      131.779     400.083    -344.719
  P      133.238     400.407    -345.311
  C      135.020     398.524    -345.766
  O      133.731     399.055    -346.019
  C      135.003     397.701    -344.470
  O      133.774     396.959    -344.377
  C      136.119     396.663    -344.360
  O      137.359     397.264    -344.028
  C      135.546     395.732    -343.298
  O      135.763     396.286    -341.988
  C      134.044     395.742    -343.638
  N      133.616     394.565    -344.393
  C      133.149     393.491    -343.633
  O      133.096     393.503    -342.406
  N      132.766     392.383    -344.345
  C      132.860     392.224    -345.699
  O      132.542     391.191    -346.284
  C      133.384     393.387    -346.446
  C      133.732     394.477    -345.767
  O      134.086     400.490    -343.958
  O      133.265     401.636    -346.156
  H      133.691     399.949    -343.252
  H      135.352     395.661    -341.357
  H      132.406     391.594    -343.823
  H      133.484     393.289    -347.516
  H      134.132     395.334    -346.296
  H      133.447     395.803    -342.723
  H      136.010     394.738    -343.317
  H      136.213     396.127    -345.314
  H      135.045     398.403    -343.624
  H      135.734     399.346    -345.670
  H      135.317     397.896    -346.612
  P      138.676     396.358    -344.258
  C      139.861     395.840    -341.982
  O      138.867     395.495    -342.924
  O      139.833     397.464    -344.181
  O      138.650     395.576    -345.537
  H      139.688     398.118    -343.476
  H      139.608     395.390    -341.021
  H      139.916     396.930    -341.858
  H      140.830     395.462    -342.312
  H      129.781     399.889    -345.086
  H      130.832     399.408    -346.397
  H      130.601     401.103    -346.038

 3  4  5  6  7  8  9  10  11  12  13  24  28  29  30  31  32 0
 6-311+G(2d,p)
 ****
 33  34 0
 6-311+G(2d,p)
 ****
 1  2  14  15  16  17  18  19  20  21  22  23  25  26  27 0
 3-21G
 ****
 35  36  37  38  39  40  41  42  43  44  45 0
 3-21G
 ****


