%nproc=1
%NoSave
%Mem=1900MB
#P OB98/GEN NMR

erre ene a

0 1
  C      462.532    -354.988     966.743
  O      461.679    -355.626     965.796
  P      460.253    -356.142     966.341
  C      458.903    -353.955     965.900
  O      459.453    -354.860     966.861
  C      457.477    -353.572     966.249
  O      457.380    -353.104     967.614
  C      456.883    -352.466     965.394
  O      456.440    -352.942     964.140
  C      455.706    -352.029     966.254
  O      454.585    -352.897     966.010
  C      456.249    -352.204     967.669
  N      454.763    -348.067     970.204
  C      454.012    -349.138     969.728
  N      452.678    -349.101     969.992
  N      454.521    -350.132     969.065
  C      455.864    -350.034     968.896
  C      456.701    -349.027     969.310
  C      456.136    -347.916     970.018
  O      456.728    -346.917     970.438
  N      458.018    -349.285     968.967
  C      457.953    -350.455     968.370
  N      456.673    -350.951     968.284
  O      460.639    -356.905     967.704
  O      459.519    -357.016     965.388
  H      454.933    -353.811     966.044
  H      459.989    -357.591     967.881
  H      454.309    -347.310     970.707
  H      458.813    -350.999     967.990
  H      455.508    -352.675     968.334
  H      455.359    -351.007     966.010
  H      452.214    -348.412     970.563
  H      457.596    -351.628     965.287
  H      452.128    -349.896     969.701
  H      456.867    -354.500     966.167
  H      458.928    -354.425     964.906
  H      459.553    -353.061     965.858
  P      456.799    -352.073     962.841
  C      458.984    -353.359     962.194
  O      458.405    -352.170     962.687
  O      456.556    -350.575     963.327
  O      456.015    -352.419     961.614
  H      456.296    -350.000     962.583
  H      458.397    -353.763     961.366
  H      459.007    -354.126     963.008
  H      459.996    -353.177     961.865
  H      463.441    -354.693     966.262
  H      462.753    -355.668     967.539
  H      462.042    -354.123     967.139

 3  4  5  6  7  8  9  10  11  12  23  26  30  31  33  0
 6-311+G(2d,p)
 ****
 35  36  37  38 0
 6-311+G(2d,p)
 ****
 1  2  13  14  15  16  17  18  19  20  21  22  24  25  27  28  29 0
 3-21G
 ****
 32  34  39  40  41  42  43  44  45  46  47  48  49 0
 3-21G
 ****


