%nproc=1
%NoSave
%Mem=1900MB
#P OB98/GEN NMR

erre ene a

0 1
  C     -226.888       2.603    -164.826
  O     -226.317       3.263    -163.713
  H     -227.112       1.563    -164.573
  H     -227.818       3.109    -165.094
  H     -226.206       2.641    -165.681
  P     -224.918       2.687    -163.179
  C     -225.905       0.341    -162.672
  O     -225.283       1.508    -162.153
  C     -227.237       0.101    -161.969
  O     -227.936      -0.995    -162.592
  C     -227.121      -0.271    -160.494
  O     -226.912       0.870    -159.676
  C     -228.491      -0.888    -160.250
  O     -229.469       0.154    -160.077
  C     -228.744      -1.635    -161.569
  N     -230.051      -6.192    -159.644
  C     -230.647      -4.981    -159.581
  N     -230.249      -3.818    -160.136
  C     -229.117      -3.992    -160.836
  C     -228.405      -5.167    -161.012
  C     -228.911      -6.309    -160.371
  N     -228.255      -7.530    -160.389
  N     -227.281      -4.948    -161.785
  C     -227.305      -3.659    -162.052
  N     -228.396      -3.041    -161.508
  O     -224.389       3.868    -162.231
  O     -223.927       2.341    -164.238
  H     -229.613       0.552    -160.956
  H     -223.758       4.419    -162.730
  H     -231.563      -4.939    -159.002
  H     -226.555      -3.133    -162.628
  H     -229.791      -1.562    -161.891
  H     -228.524      -1.517    -159.357
  H     -226.351      -1.033    -160.331
  H     -227.853       1.001    -162.097
  H     -225.251      -0.522    -162.514
  H     -228.432      -8.096    -159.564
  H     -227.297      -7.484    -160.714
  H     -226.062       0.476    -163.747
  P     -225.730       0.808    -158.596
  C     -227.391       1.498    -156.737
  O     -226.162       1.779    -157.391
  O     -224.544       1.602    -159.319
  O     -225.300      -0.563    -158.199
  H     -223.747       1.035    -159.367
  H     -227.555       2.216    -155.961
  H     -227.353       0.517    -156.312
  H     -228.192       1.549    -157.445

 6  7  8  9  10  11  12  13  14  15  25  28  32  33  34  35 0
 6-311+G(2d,p)
 ****
 36  39  40 0
 6-311+G(2d,p)
 ****
 1  2  3  4  5  16  17  18  19  20  21  22  23  24 0
 3-21G
 ****
 26  27  29  30  31  37  38  41  42  43  44  45  46  47  48 0
 3-21G
 ****


