%nproc=1
%NoSave
%Mem=1900MB
#P OB98/GEN NMR

erre ene a

0 1
  C       82.811     -90.704     -38.536
  O       82.175     -89.450     -38.340
  P       82.395     -88.737     -36.916
  C       84.371     -87.157     -37.565
  O       82.999     -87.288     -37.229
  C       84.548     -86.026     -38.580
  O       83.947     -86.386     -39.842
  C       83.907     -84.708     -38.165
  O       84.752     -84.005     -37.273
  C       83.726     -84.020     -39.515
  O       84.956     -83.408     -39.948
  C       83.346     -85.199     -40.424
  N       79.702     -86.588     -43.641
  C       81.044     -86.342     -43.870
  N       81.484     -86.541     -45.131
  N       81.877     -85.943     -42.947
  C       81.294     -85.776     -41.735
  C       79.978     -85.969     -41.388
  C       79.079     -86.460     -42.408
  O       77.908     -86.787     -42.233
  N       79.757     -85.673     -40.069
  C       80.944     -85.330     -39.614
  N       81.916     -85.396     -40.578
  O       83.624     -89.546     -36.293
  O       81.197     -88.726     -36.019
  H       85.643     -84.094     -40.032
  H       83.307     -90.222     -35.662
  H       79.112     -86.911     -44.388
  H       81.156     -85.049     -38.594
  H       83.761     -85.089     -41.433
  H       82.977     -83.225     -39.474
  H       80.895     -86.825     -45.900
  H       82.925     -84.887     -37.709
  H       82.463     -86.362     -45.320
  H       85.623     -85.892     -38.750
  H       84.725     -88.093     -38.004
  H       84.945     -86.951     -36.655
  P       84.092     -82.840     -36.391
  C       83.746     -84.421     -34.360
  O       84.318     -83.225     -34.855
  O       82.520     -83.056     -36.614
  O       84.509     -81.460     -36.774
  H       82.069     -82.191     -36.635
  H       84.373     -84.802     -33.551
  H       83.667     -85.184     -35.139
  H       82.750     -84.205     -33.966
  H       82.586     -91.068     -39.517
  H       82.456     -91.402     -37.806
  H       83.870     -90.587     -38.433

 3  4  5  6  7  8  9  10  11  12  23  26  30  31 0
 6-311+G(2d,p)
 ****
 33  35  36  37  38 0
 6-311+G(2d,p)
 ****
 1  2  13  14  15  16  17  18  19  20  21  22  24  25 0
 3-21G
 ****
 27  28  29  32  34  39  40  41  42  43  44  45  46  47  48  49 0
 3-21G
 ****


