%nproc=1
%NoSave
%Mem=1900MB
#P OB98/GEN NMR

erre ene a

0 1
  C     -166.262     245.627     122.450
  O     -166.494     244.234     122.511
  H     -165.729     245.851     121.521
  H     -165.643     245.946     123.291
  H     -167.207     246.179     122.452
  P     -167.380     243.651     123.713
  C     -165.481     244.108     125.395
  O     -166.356     243.135     124.835
  C     -164.404     243.419     126.230
  O     -163.448     244.390     126.714
  C     -164.944     242.713     127.470
  O     -165.580     241.498     127.122
  C     -163.666     242.568     128.284
  O     -162.877     241.464     127.814
  C     -162.954     243.910     127.986
  N     -163.157     244.908     129.040
  C     -162.609     244.607     130.281
  O     -161.987     243.572     130.513
  N     -162.839     245.527     131.272
  C     -163.625     246.640     131.163
  O     -163.982     247.312     132.127
  C     -164.117     246.942     129.810
  C     -163.877     246.068     128.829
  O     -168.436     242.671     123.324
  O     -168.015     244.962     124.383
  H     -168.938     245.061     124.083
  H     -162.017     241.523     128.276
  H     -162.486     245.297     132.191
  H     -164.690     247.851     129.668
  H     -164.255     246.257     127.828
  H     -161.874     243.753     127.869
  H     -163.867     242.390     129.343
  H     -165.634     243.374     128.009
  H     -163.871     242.712     125.582
  H     -166.068     244.776     126.036
  H     -165.031     244.694     124.586
  P     -167.055     241.159     127.641
  C     -166.881     238.724     128.423
  O     -167.322     239.597     127.392
  O     -168.128     242.060     127.124
  O     -166.947     241.258     129.236
  H     -167.638     241.864     129.566
  H     -167.107     237.713     128.155
  H     -167.379     238.971     129.337
  H     -165.824     238.830     128.553

 6  7  8  9  10  11  12  13  14  15  16  27  31  32  33  34  35 0
 6-311+G(2d,p)
 ****
 36  37 0
 6-311+G(2d,p)
 ****
 1  2  3  4  5  17  18  19  20  21  22  23  24  25 0
 3-21G
 ****
 26  28  29  30  38  39  40  41  42  43  44  45 0
 3-21G
 ****


