%nproc=1
%NoSave
%Mem=1900MB
#P OB98/GEN NMR

erre ene a

0 1
  C      -25.627      -4.566      40.700
  O      -26.014      -4.780      42.067
  P      -27.425      -4.206      42.581
  C      -29.505      -4.081      41.000
  O      -28.598      -4.893      41.730
  C      -30.796      -4.855      40.716
  O      -30.503      -6.094      40.030
  C      -31.568      -5.265      41.961
  O      -32.283      -4.178      42.523
  C      -32.470      -6.363      41.409
  O      -33.637      -5.803      40.783
  C      -31.555      -7.027      40.360
  N      -31.014      -8.304      40.814
  C      -31.844      -9.410      40.682
  O      -33.000      -9.340      40.266
  N      -31.313     -10.607      41.080
  C      -30.084     -10.790      41.649
  O      -29.671     -11.886      42.003
  C      -29.284      -9.571      41.838
  C      -29.779      -8.404      41.423
  O      -27.414      -2.716      41.986
  O      -27.615      -4.182      44.061
  H      -33.321      -5.274      40.024
  H      -27.954      -2.135      42.553
  H      -31.888     -11.426      40.966
  H      -28.313      -9.669      42.306
  H      -29.199      -7.495      41.555
  H      -32.110      -7.194      39.429
  H      -32.821      -7.046      42.187
  H      -30.884      -5.701      42.698
  H      -31.424      -4.242      40.057
  H      -29.046      -3.791      40.050
  H      -29.718      -3.176      41.577
  P      -32.053      -3.895      44.088
  C      -29.979      -3.068      45.448
  O      -30.587      -3.257      44.189
  O      -31.898      -5.387      44.646
  O      -33.159      -3.109      44.709
  H      -31.469      -5.977      44.003
  H      -30.272      -3.847      46.157
  H      -30.266      -2.090      45.844
  H      -28.894      -3.096      45.322
  H      -24.669      -5.009      40.527
  H      -25.575      -3.515      40.504
  H      -26.350      -5.014      40.050

 3  4  5  6  7  8  9  10  11  12  13  23  28  29  30  31  32 0
 6-311+G(2d,p)
 ****
 33  34 0
 6-311+G(2d,p)
 ****
 1  2  14  15  16  17  18  19  20  21  22  24  25  26 0
 3-21G
 ****
 27  35  36  37  38  39  40  41  42  43  44  45 0
 3-21G
 ****


