%nproc=1
%NoSave
%Mem=1900MB
#P OB98/GEN NMR

erre ene a

0 1
  C     -322.397    -178.717      12.442
  O     -322.438    -179.026      13.820
  H     -323.226    -178.043      12.211
  H     -322.512    -179.626      11.847
  H     -321.458    -178.217      12.188
  P     -321.322    -180.009      14.420
  C     -322.743    -182.176      14.467
  O     -321.708    -181.451      13.821
  C     -322.292    -183.608      14.742
  O     -322.283    -184.398      13.533
  C     -320.877    -183.740      15.296
  O     -320.753    -183.346      16.651
  C     -320.660    -185.230      15.103
  O     -321.379    -185.959      16.113
  C     -321.283    -185.440      13.704
  N     -320.291    -185.382      12.630
  C     -320.146    -186.534      11.848
  O     -320.820    -187.536      12.074
  N     -319.209    -186.537      10.841
  C     -318.468    -185.490      10.649
  N     -317.553    -185.550       9.642
  C     -318.573    -184.263      11.463
  C     -319.495    -184.276      12.421
  O     -321.131    -179.960      15.901
  O     -319.996    -179.663      13.594
  H     -321.115    -186.895      16.028
  H     -319.269    -180.238      13.934
  H     -317.910    -183.430      11.280
  H     -319.629    -183.415      13.066
  H     -321.805    -186.404      13.650
  H     -319.611    -185.526      15.177
  H     -320.158    -183.199      14.664
  H     -323.031    -184.060      15.418
  H     -317.501    -186.403       9.103
  H     -323.626    -182.160      13.821
  H     -316.881    -184.811       9.471
  H     -322.992    -181.702      15.422
  P     -319.394    -182.591      17.068
  C     -318.606    -184.589      18.559
  O     -318.344    -183.738      17.452
  O     -319.770    -181.919      18.468
  O     -318.884    -181.600      16.069
  H     -320.001    -180.978      18.348
  H     -317.805    -185.290      18.668
  H     -319.522    -185.117      18.394
  H     -318.689    -184.001      19.449

 6  7  8  9  10  11  12  13  14  15  16  26  30  31  32  33  35 0
 6-311+G(2d,p)
 ****
 37  38 0
 6-311+G(2d,p)
 ****
 1  2  3  4  5  17  18  19  20  21  22  23  24  25 0
 3-21G
 ****
 27  28  29  34  36  39  40  41  42  43  44  45  46 0
 3-21G
 ****


