%nproc=1
%NoSave
%Mem=1900MB
#P OB98/GEN NMR

erre ene a

0 1
  C     -683.665     351.693    -981.827
  O     -684.727     352.419    -982.398
  H     -683.578     351.965    -980.761
  H     -682.716     351.920    -982.314
  H     -683.863     350.613    -981.876
  P     -684.994     352.180    -983.962
  C     -684.905     354.684    -984.657
  O     -684.252     353.397    -984.697
  C     -684.012     355.726    -985.316
  O     -682.841     355.979    -984.507
  C     -683.518     355.368    -986.695
  O     -684.504     355.674    -987.687
  C     -682.301     356.279    -986.826
  O     -682.736     357.620    -987.211
  C     -681.742     356.303    -985.387
  N     -676.827     355.213    -986.426
  C     -677.697     356.111    -986.989
  N     -678.999     356.304    -986.689
  C     -679.401     355.465    -985.714
  C     -678.639     354.521    -985.038
  C     -677.300     354.395    -985.442
  N     -676.425     353.493    -984.887
  N     -679.398     353.853    -984.120
  C     -680.556     354.432    -984.151
  N     -680.643     355.398    -985.133
  O     -686.417     351.941    -984.353
  O     -684.008     350.949    -984.253
  H     -681.932     358.191    -987.160
  H     -683.161     351.080    -983.783
  H     -677.293     356.733    -987.767
  H     -681.407     354.211    -983.492
  H     -681.391     357.308    -985.106
  H     -681.594     355.968    -987.594
  H     -683.170     354.328    -986.755
  H     -684.600     356.685    -985.354
  H     -685.116     354.971    -983.618
  H     -675.553     353.365    -985.340
  H     -676.799     352.801    -984.247
  H     -685.845     354.580    -985.194
  P     -684.456     354.984    -989.132
  C     -684.484     357.315    -990.247
  O     -683.802     356.060    -990.102
  O     -685.779     354.434    -989.598
  O     -683.334     353.847    -989.006
  H     -683.419     353.201    -989.735
  H     -683.940     357.941    -990.923
  H     -684.553     357.796    -989.293
  H     -685.467     357.144    -990.633

 6  7  8  9  10  11  12  13  14  15  25  28  32  33  34  35 0
 6-311+G(2d,p)
 ****
 36  39  40 0
 6-311+G(2d,p)
 ****
 1  2  3  4  5  16  17  18  19  20  21  22  23  24 0
 3-21G
 ****
 26  27  29  30  31  37  38  41  42  43  44  45  46  47 0
 3-21G
 ****
 48 0
 3-21G
 ****


