%nproc=1
%NoSave
%Mem=1900MB
#P OB98/GEN NMR

erre ene a

0 1
  C      120.581      98.766    -124.874
  O      119.590      98.086    -125.627
  P      118.144      97.884    -124.956
  C      117.276     100.135    -125.939
  O      117.509      99.348    -124.784
  C      116.271     101.248    -125.638
  O      116.363     102.251    -126.682
  C      114.807     100.795    -125.573
  O      114.151     101.631    -124.613
  C      114.290     101.113    -126.964
  O      112.872     101.232    -127.009
  C      115.049     102.402    -127.260
  N      114.013     105.639    -131.004
  C      113.649     105.683    -129.671
  N      112.961     106.775    -129.274
  N      113.933     104.743    -128.808
  C      114.639     103.722    -129.348
  C      115.023     103.546    -130.657
  C      114.737     104.609    -131.592
  O      115.115     104.652    -132.760
  N      115.646     102.340    -130.840
  C      115.708     101.824    -129.629
  N      115.152     102.645    -128.685
  O      118.504      97.449    -123.461
  O      117.244      96.904    -125.640
  H      112.614     101.976    -126.428
  H      118.520      96.475    -123.372
  H      113.781     106.403    -131.618
  H      116.145     100.870    -129.377
  H      114.575     103.283    -126.807
  H      114.582     100.315    -127.658
  H      112.735     107.551    -129.877
  H      114.687      99.741    -125.307
  H      112.709     106.848    -128.295
  H      116.563     101.730    -124.696
  H      116.861      99.496    -126.725
  H      118.222     100.552    -126.297
  P      113.330     100.919    -123.435
  C      115.452     100.866    -121.952
  O      114.380     100.137    -122.516
  O      112.562      99.739    -124.201
  O      112.362     101.806    -122.721
  H      111.705      99.570    -123.768
  H      115.820     100.326    -121.075
  H      115.140     101.867    -121.643
  H      116.261     100.947    -122.681
  H      121.484      98.825    -125.444
  H      120.767      98.233    -123.965
  H      120.239      99.754    -124.644

 3  4  5  6  7  8  9  10  11  12  23  26  30  31 0
 6-311+G(2d,p)
 ****
 33  35  36  37  38 0
 6-311+G(2d,p)
 ****
 1  2  13  14  15  16  17  18  19  20  21  22  24  25 0
 3-21G
 ****
 27  28  29  32  34  39  40  41  42  43  44  45  46  47  48  49 0
 3-21G
 ****


