%nproc=1
%NoSave
%Mem=1900MB
#P OB98/GEN NMR

erre ene a

0 1
  C      212.666    -192.916      -9.436
  O      212.056    -192.935      -8.161
  H      213.533    -193.581      -9.423
  H      212.999    -191.904      -9.678
  H      211.962    -193.265     -10.197
  P      210.733    -192.044      -7.987
  C      209.571    -193.482      -6.149
  O      210.243    -192.275      -6.476
  C      208.851    -193.340      -4.799
  O      209.850    -193.122      -3.762
  C      207.880    -192.146      -4.743
  O      206.812    -192.469      -3.837
  C      208.750    -191.064      -4.124
  O      207.957    -190.010      -3.636
  C      209.493    -191.898      -3.083
  N      211.798    -190.259       1.162
  C      210.661    -190.967       0.966
  N      210.121    -191.370      -0.200
  C      210.894    -191.001      -1.238
  C      212.074    -190.279      -1.195
  C      212.525    -189.893       0.078
  N      213.669    -189.155       0.281
  N      212.558    -190.068      -2.474
  C      211.691    -190.660      -3.268
  N      210.669    -191.237      -2.565
  O      209.648    -192.829      -8.864
  O      210.855    -190.615      -8.397
  H      208.513    -189.272      -3.315
  H      209.626    -192.468      -9.769
  H      210.115    -191.238       1.866
  H      211.743    -190.695      -4.351
  H      208.854    -192.159      -2.229
  H      209.441    -190.646      -4.861
  H      207.465    -191.877      -5.716
  H      208.344    -194.282      -4.559
  H      210.309    -194.290      -6.093
  H      208.839    -193.715      -6.927
  H      213.910    -188.897       1.225
  H      214.202    -188.847      -0.518
  P      205.308    -192.561      -4.400
  C      204.728    -194.987      -3.632
  O      204.446    -193.600      -3.530
  O      205.515    -193.364      -5.774
  O      204.640    -191.254      -4.664
  H      205.015    -192.926      -6.488
  H      204.067    -195.533      -2.992
  H      205.741    -195.168      -3.337
  H      204.589    -195.306      -4.644

 6  7  8  9  10  11  12  13  14  15  25  28  32  33  34  35 0
 6-311+G(2d,p)
 ****
 36  37  40 0
 6-311+G(2d,p)
 ****
 1  2  3  4  5  16  17  18  19  20  21  22  23  24 0
 3-21G
 ****
 26  27  29  30  31  38  39 41  42  43  44  45  46  47  48 0
 3-21G
 ****


