%nproc=1
%NoSave
%Mem=1900MB
#P OB98/GEN NMR

erre ene a

0 1
  C      149.774    -297.232    -104.805
  O      149.131    -297.748    -103.661
  H      149.652    -297.942    -105.626
  H      150.841    -297.110    -104.602
  H      149.347    -296.271    -105.107
  P      148.756    -296.747    -102.472
  C      148.431    -298.663    -100.771
  O      149.128    -297.462    -101.081
  C      149.364    -299.722    -100.185
  O      150.070    -300.390    -101.254
  C      150.427    -299.122     -99.260
  O      150.015    -298.971     -97.912
  C      151.557    -300.141     -99.377
  O      151.409    -301.201     -98.416
  C      151.401    -300.685    -100.804
  N      156.272    -299.377    -101.649
  C      155.663    -299.740    -100.460
  N      156.450    -299.711     -99.363
  N      154.404    -300.078    -100.369
  C      153.724    -299.961    -101.531
  C      154.213    -299.595    -102.766
  C      155.624    -299.295    -102.874
  O      156.214    -298.987    -103.905
  N      153.213    -299.550    -103.711
  C      152.117    -299.805    -103.026
  N      152.384    -300.139    -101.719
  O      147.152    -296.773    -102.453
  O      149.260    -295.344    -102.626
  H      152.183    -301.792     -98.498
  H      146.816    -295.908    -102.159
  H      157.250    -299.158    -101.662
  H      151.114    -299.804    -103.435
  H      151.513    -301.776    -100.827
  H      152.527    -299.675     -99.180
  H      157.400    -299.378     -99.360
  H      150.787    -298.167     -99.652
  H      155.999    -299.785     -98.447
  H      148.768    -300.484     -99.670
  H      147.999    -299.020    -101.706
  H      147.607    -298.458    -100.083
  P      150.690    -297.875     -96.965
  C      149.792    -298.990     -94.765
  O      150.887    -298.513     -95.517
  O      149.514    -296.813     -96.746
  O      151.927    -297.235     -97.503
  H      149.622    -296.051     -97.343
  H      150.142    -299.375     -93.830
  H      149.298    -299.768     -95.308
  H      149.106    -298.189     -94.586

 6  7  8  9  10  11  12  13  14  15  26  29  33  34 0
 6-311+G(2d,p)
 ****
 36  38  39  40  41 0
 6-311+G(2d,p)
 ****
 1  2  3  4  5  16  17  18  19  20  21  22  23  24  25 0
 3-21G
 ****
 27  28  30  31  32  35  37  42  43  44  45  46  47 0
 3-21G
 ****
 48  49 0
 3-21G
 ****


