%nproc=1
%NoSave
%Mem=1900MB
#P OB98/GEN NMR

erre ene a

0 1
  C     -910.718    -795.895     279.203
  O     -912.046    -795.732     279.639
  H     -910.711    -796.002     278.122
  H     -910.277    -796.780     279.657
  H     -910.113    -795.003     279.461
  P     -912.331    -795.257     281.138
  C     -912.392    -797.484     282.439
  O     -911.623    -796.346     282.110
  C     -911.633    -798.370     283.448
  O     -910.946    -797.506     284.399
  C     -912.545    -799.312     284.264
  O     -911.780    -800.483     284.565
  C     -912.779    -798.497     285.516
  O     -913.259    -799.301     286.572
  C     -911.413    -797.860     285.710
  N     -911.447    -796.704     286.619
  C     -911.881    -796.948     287.918
  O     -912.263    -798.060     288.298
  N     -911.942    -795.870     288.745
  C     -911.616    -794.576     288.404
  O     -911.708    -793.638     289.177
  C     -911.218    -794.367     286.998
  C     -911.121    -795.442     286.188
  O     -913.763    -794.974     281.465
  O     -911.404    -793.968     281.325
  H     -913.621    -798.740     287.301
  H     -911.812    -793.341     281.957
  H     -912.243    -796.020     289.700
  H     -910.977    -793.362     286.687
  H     -910.824    -795.316     285.172
  H     -910.706    -798.581     286.135
  H     -913.549    -797.717     285.332
  H     -913.468    -799.577     283.743
  H     -910.860    -798.933     282.914
  H     -912.573    -798.062     281.517
  H     -913.358    -797.182     282.875
  P     -911.839    -801.801     283.648
  C     -913.296    -803.151     285.298
  O     -913.203    -802.608     283.995
  O     -910.600    -802.640     283.710
  O     -912.073    -801.253     282.164
  H     -911.703    -801.882     281.510
  H     -914.233    -803.656     285.408
  H     -913.229    -802.363     286.018
  H     -912.496    -803.845     285.453

 6  7  8  9  10  11  12  13  14  15  16  26  31  32  33  34  35 0
 6-311+G(2d,p)
 ****
 36  37 0
 6-311+G(2d,p)
 ****
 1  2  3  4  5  17  18  19  20  21  22  23  24  25 0
 3-21G
 ****
 27  28  29  30  38  39  40  41  42  43  44  45 0
 3-21G
 ****


