%nproc=1
%NoSave
%Mem=1900MB
#P OB98/GEN NMR

erre ene a

0 1
  C     -630.679    -128.035      98.733
  O     -631.274    -127.097      97.820
  P     -632.762    -126.612      98.180
  C     -634.114    -128.829      98.105
  O     -633.519    -127.826      98.918
  C     -634.139    -130.195      98.789
  O     -634.843    -130.109     100.074
  C     -634.846    -131.290      97.980
  O     -634.166    -132.522      98.252
  C     -636.224    -131.349      98.601
  O     -636.888    -132.575      98.310
  C     -635.864    -131.143     100.076
  N     -637.708    -131.275     104.787
  C     -636.557    -131.858     104.248
  N     -635.785    -132.530     105.103
  N     -636.227    -131.783     102.981
  C     -637.096    -131.034     102.249
  C     -638.240    -130.400     102.652
  C     -638.618    -130.514     104.047
  O     -639.613    -130.014     104.568
  N     -638.842    -129.720     101.610
  C     -638.082    -130.004     100.558
  N     -636.986    -130.754     100.910
  O     -633.480    -126.519      96.750
  O     -632.814    -125.303      98.907
  H     -636.285    -133.308      98.561
  H     -633.508    -125.592      96.452
  H     -637.916    -131.379     105.752
  H     -638.252    -129.674      99.564
  H     -635.431    -132.058     100.528
  H     -636.844    -130.512      98.235
  H     -635.956    -132.587     106.104
  H     -634.868    -131.103      96.893
  H     -634.907    -132.930     104.763
  H     -633.104    -130.489      99.002
  H     -633.558    -128.917      97.158
  H     -635.124    -128.501      97.827
  P     -633.058    -133.031      97.193
  C     -634.799    -133.932      95.476
  O     -633.761    -132.997      95.755
  O     -632.950    -134.596      97.505
  O     -631.737    -132.356      97.304
  H     -632.025    -134.879      97.437
  H     -635.450    -133.487      94.706
  H     -635.389    -134.133      96.379
  H     -634.358    -134.848      95.096
  H     -629.695    -128.286      98.396
  H     -631.278    -128.921      98.775
  H     -630.621    -127.597      99.707

 3  4  5  6  7  8  9  10  11  12  23  26  30  31 0
 6-311+G(2d,p)
 ****
 33  35  36  37  38 0
 6-311+G(2d,p)
 ****
 1  2  13  14  15  16  17  18  19  20  21  22  24  25 0
 3-21G
 ****
 27  28  29  32  34  39  40  41  42  43  44  45  46  47  48  49 0
 3-21G
 ****


