%nproc=1
%NoSave
%Mem=1900MB
#P OB98/GEN NMR

erre ene a

0 1
  C     -394.199    -438.663     432.033
  O     -394.033    -437.905     433.219
  H     -393.250    -439.149     431.792
  H     -394.479    -438.004     431.207
  H     -394.964    -439.430     432.177
  P     -395.363    -437.300     433.871
  C     -395.055    -438.056     436.365
  O     -395.043    -436.994     435.417
  C     -394.013    -437.798     437.452
  O     -392.686    -437.792     436.898
  C     -394.133    -436.436     438.123
  O     -395.242    -436.351     438.984
  C     -392.792    -436.359     438.846
  O     -392.830    -437.027     440.107
  C     -391.848    -437.102     437.856
  N     -390.908    -436.195     437.222
  C     -389.720    -435.964     437.933
  O     -389.529    -436.541     439.000
  N     -388.814    -435.078     437.423
  C     -389.078    -434.448     436.325
  N     -388.148    -433.544     435.894
  C     -390.318    -434.652     435.546
  C     -391.183    -435.532     436.054
  O     -396.324    -438.580     433.944
  O     -395.946    -436.138     433.138
  H     -391.909    -437.307     440.295
  H     -395.905    -439.362     434.336
  H     -390.487    -434.106     434.626
  H     -392.115    -435.745     435.541
  H     -391.277    -437.871     438.385
  H     -392.499    -435.325     439.037
  H     -394.161    -435.647     437.360
  H     -394.083    -438.613     438.188
  H     -387.341    -433.403     436.486
  H     -394.863    -439.020     435.873
  H     -388.278    -432.943     435.095
  H     -396.060    -438.105     436.797
  P     -396.276    -435.135     438.896
  C     -398.045    -436.607     440.072
  O     -397.356    -435.355     440.070
  O     -396.880    -434.913     437.548
  O     -395.437    -433.894     439.446
  H     -395.108    -433.995     440.354
  H     -398.731    -436.635     440.893
  H     -397.337    -437.403     440.171
  H     -398.583    -436.720     439.154

 6  7  8  9  10  11  12  13  14  15  16  26  30  31  32  33  35 0
 6-311+G(2d,p)
 ****
 37  38 0
 6-311+G(2d,p)
 ****
 1  2  3  4  5  17  18  19  20  21  22  23  24  25 0
 3-21G
 ****
 27  28  29  34  36  39  40  41  42  43  44  45  46 0
 3-21G
 ****


