%nproc=1
%NoSave
%Mem=1900MB
#P OB98/GEN NMR

erre ene a

0 1
  C      338.741     301.388      73.762
  O      339.469     302.296      74.589
  P      340.302     301.729      75.832
  C      339.459     303.718      77.240
  O      340.577     302.925      76.865
  C      339.814     305.214      77.225
  O      340.843     305.487      78.219
  C      340.335     305.694      75.863
  O      339.663     306.859      75.383
  C      341.828     305.835      76.085
  O      342.442     306.739      75.176
  C      341.920     306.188      77.575
  N      343.227     305.844      78.143
  C      344.104     306.892      78.382
  O      343.855     308.061      78.070
  N      345.307     306.559      78.938
  C      345.741     305.293      79.198
  O      346.848     305.040      79.652
  C      344.795     304.214      78.863
  C      343.602     304.533      78.357
  O      341.499     300.904      75.492
  O      339.214     300.844      76.619
  H      343.417     306.702      75.314
  H      339.664     300.045      76.955
  H      345.947     307.315      79.135
  H      345.116     303.195      79.034
  H      342.895     303.762      78.092
  H      341.770     307.262      77.732
  H      342.297     304.855      75.927
  H      340.155     304.945      75.083
  H      338.910     305.765      77.503
  H      339.140     303.441      78.247
  H      338.616     303.495      76.577
  P      338.482     306.843      74.306
  C      339.768     307.564      72.172
  O      338.827     307.915      73.167
  O      337.097     306.938      74.858
  O      338.688     305.438      73.563
  H      337.817     305.035      73.393
  H      340.158     308.479      71.722
  H      339.273     306.973      71.398
  H      340.598     306.997      72.594
  H      338.246     301.932      72.985
  H      338.015     300.871      74.354
  H      339.417     300.681      73.328

 3  4  5  6  7  8  9  10  11  12  13  23  28  29  30  31  32 0
 6-311+G(2d,p)
 ****
 33  34 0
 6-311+G(2d,p)
 ****
 1  2  14  15  16  17  18  19  20  21  22  24  25  26  27 0
 3-21G
 ****
 35  36  37  38  39  40  41  42  43  44  45 0
 3-21G
 ****


