%nproc=1
%NoSave
%Mem=1900MB
#P OB98/GEN NMR

erre ene a

0 1
  C       20.499     348.730    -448.727
  O       21.347     348.282    -447.682
  P       22.395     349.277    -446.977
  C       24.222     348.409    -448.585
  O       23.525     349.545    -448.083
  C       25.180     348.836    -449.691
  O       24.424     349.260    -450.848
  C       26.075     350.016    -449.333
  O       27.140     349.609    -448.484
  C       26.492     350.493    -450.724
  O       27.545     349.672    -451.243
  C       25.203     350.270    -451.539
  N       24.417     351.496    -451.716
  C       24.508     352.117    -452.965
  O       25.206     351.633    -453.861
  N       23.773     353.254    -453.193
  C       23.036     353.750    -452.246
  N       22.278     354.836    -452.549
  C       22.954     353.161    -450.897
  C       23.658     352.039    -450.709
  O       22.907     348.819    -445.655
  O       21.632     350.685    -446.924
  H       27.161     348.788    -451.408
  H       21.085     350.803    -446.106
  H       22.332     353.616    -450.136
  H       23.639     351.534    -449.745
  H       25.438     349.852    -452.522
  H       26.838     351.535    -450.738
  H       25.496     350.800    -448.835
  H       25.785     347.966    -449.982
  H       22.227     355.097    -453.531
  H       23.495     347.701    -448.998
  H       21.481     355.099    -451.981
  H       24.762     347.923    -447.762
  P       27.820     350.732    -447.558
  C       29.591     351.167    -449.412
  O       28.597     351.719    -448.569
  O       28.989     349.934    -446.814
  O       26.876     351.399    -446.606
  H       28.712     349.710    -445.904
  H       29.833     351.902    -450.179
  H       29.221     350.254    -449.901
  H       30.489     350.950    -448.837
  H       19.882     347.921    -449.057
  H       21.094     349.081    -449.544
  H       19.881     349.526    -448.368

 3  4  5  6  7  8  9  10  11  12  13  23  27  28  29  30  32 0
 6-311+G(2d,p)
 ****
 34  35 0
 6-311+G(2d,p)
 ****
 1  2  14  15  16  17  18  19  20  21  22  24  25  26 0
 3-21G
 ****
 31  33  36  37  38  39  40  41  42  43  44  45  46 0
 3-21G
 ****


