%nproc=1
%NoSave
%Mem=1900MB
#P OB98/GEN NMR

erre ene a

0 1
  C      575.171     928.787     399.848
  O      576.453     928.919     400.438
  H      574.846     927.752     399.939
  H      575.220     929.052     398.786
  H      574.446     929.424     400.358
  P      577.093     930.391     400.433
  C      579.183     929.644     399.055
  O      578.021     930.476     399.128
  C      579.996     929.996     397.814
  O      579.230     929.683     396.630
  C      580.343     931.477     397.702
  O      581.437     931.846     398.533
  C      580.643     931.597     396.215
  O      582.001     931.193     395.923
  C      579.650     930.612     395.599
  N      577.921     933.096     391.480
  C      579.096     932.470     391.734
  N      579.479     931.812     392.849
  C      578.488     931.827     393.763
  C      577.240     932.418     393.644
  C      576.957     933.078     392.439
  N      575.781     933.750     392.189
  N      576.512     932.252     394.811
  C      577.295     931.558     395.614
  N      578.503     931.272     395.015
  O      578.151     930.326     401.644
  O      576.122     931.511     400.605
  H      582.565     931.886     396.324
  H      577.766     930.751     402.429
  H      579.829     932.499     390.931
  H      577.052     931.251     396.621
  H      580.118     930.014     394.797
  H      580.522     932.623     395.869
  H      579.462     932.091     397.934
  H      580.907     929.381     397.810
  H      578.881     928.599     399.012
  H      579.776     929.802     399.962
  H      575.675     934.244     391.332
  H      575.109     933.833     392.942
  P      581.619     933.404     398.879
  C      584.107     933.769     398.154
  O      582.712     933.990     397.866
  O      582.354     933.397     400.286
  O      580.338     934.170     398.922
  H      582.040     934.145     400.843
  H      584.705     934.219     397.389
  H      584.302     932.717     398.187
  H      584.350     934.207     399.100

 6  7  8  9  10  11  12  13  14  15  25  28  32  33  34  35 0
 6-311+G(2d,p)
 ****
 36  37  40 0
 6-311+G(2d,p)
 ****
 1  2  3  4  5  16  17  18  19  20  21  22  23  24 0
 3-21G
 ****
 26  27  29  30  31  38  39 41  42  43  44  45  46  47  48 0
 3-21G
 ****


