%nproc=1
%NoSave
%Mem=1900MB
#P OB98/GEN NMR

erre ene a

0 1
  C        8.066     -48.651     -65.801
  O        7.503     -49.945     -65.895
  H        9.137     -48.717     -66.013
  H        7.930     -48.253     -64.792
  H        7.601     -47.983     -66.531
  P        5.939     -50.065     -65.556
  C        6.573     -51.239     -63.334
  O        5.833     -50.201     -63.960
  C        6.371     -51.203     -61.822
  O        6.941     -50.002     -61.258
  C        4.911     -51.244     -61.382
  O        4.430     -52.577     -61.345
  C        5.001     -50.613     -60.001
  O        5.457     -51.572     -59.022
  C        6.052     -49.515     -60.216
  N        3.293     -45.591     -58.640
  C        3.579     -46.788     -58.015
  N        3.026     -46.984     -56.797
  N        4.330     -47.720     -58.538
  C        4.769     -47.415     -59.782
  C        4.553     -46.266     -60.509
  C        3.764     -45.221     -59.893
  O        3.544     -44.108     -60.361
  N        5.182     -46.325     -61.727
  C        5.745     -47.518     -61.748
  N        5.519     -48.219     -60.593
  O        5.557     -51.532     -66.076
  O        5.067     -49.029     -66.178
  H        4.722     -52.166     -58.792
  H        4.663     -51.503     -66.466
  H        2.734     -44.898     -58.176
  H        6.331     -47.913     -62.567
  H        6.662     -49.352     -59.321
  H        4.028     -50.262     -59.655
  H        2.227     -46.453     -56.481
  H        4.287     -50.615     -62.028
  H        3.177     -47.891     -56.374
  H        6.924     -52.050     -61.396
  H        7.636     -51.102     -63.561
  H        6.244     -52.205     -63.728
  P        2.912     -52.846     -61.780
  C        2.161     -52.913     -59.295
  O        1.960     -52.352     -60.585
  O        2.800     -54.442     -61.714
  O        2.553     -52.341     -63.136
  H        2.797     -54.811     -62.617
  H        1.458     -52.490     -58.609
  H        3.156     -52.699     -58.964
  H        2.021     -53.973     -59.341

 6  7  8  9  10  11  12  13  14  15  26  29  33  34 0
 6-311+G(2d,p)
 ****
 36  38  39  40  41 0
 6-311+G(2d,p)
 ****
 1  2  3  4  5  16  17  18  19  20  21  22  23  24  25 0
 3-21G
 ****
 27  28  30  31  32  35  37  42  43  44  45  46  47 0
 3-21G
 ****
 48  49 0
 3-21G
 ****


