%nproc=1
%NoSave
%Mem=1900MB
#P OB98/GEN NMR

erre ene a

0 1
  C      149.598     451.045     461.923
  O      150.165     451.206     460.637
  H      148.608     450.607     461.818
  H      149.505     452.017     462.419
  H      150.222     450.380     462.523
  P      151.612     451.895     460.564
  C      150.798     454.314     460.183
  O      151.369     453.388     461.105
  C      150.491     455.638     460.879
  O      151.733     456.191     461.390
  C      149.869     456.689     459.949
  O      148.924     457.467     460.689
  C      151.048     457.568     459.583
  O      150.646     458.874     459.169
  C      151.865     457.532     460.876
  N      155.214     461.360     460.739
  C      153.937     461.290     461.175
  N      153.120     460.214     461.194
  C      153.766     459.121     460.757
  C      155.066     459.033     460.288
  C      155.801     460.234     460.279
  N      157.093     460.323     459.811
  N      155.350     457.746     459.883
  C      154.252     457.059     460.119
  N      153.262     457.853     460.630
  O      152.310     451.799     459.250
  O      152.369     451.201     461.794
  H      149.832     459.119     459.651
  H      151.812     451.193     462.594
  H      153.509     462.216     461.545
  H      154.105     455.999     459.928
  H      151.495     458.235     461.627
  H      151.609     457.115     458.758
  H      149.383     456.258     459.073
  H      149.847     455.442     461.746
  H      149.875     453.902     459.757
  H      157.549     461.225     459.841
  H      157.558     459.499     459.466
  H      151.522     454.469     459.371
  P      147.394     456.977     460.741
  C      146.057     458.507     459.151
  O      146.714     457.258     459.313
  O      146.602     457.453     461.913
  O      147.528     455.380     460.750
  H      146.885     455.010     461.390
  H      145.649     458.570     458.164
  H      146.759     459.301     459.299
  H      145.268     458.591     459.869

 6  7  8  9  10  11  12  13  14  15  25  28  32  33  34  35 0
 6-311+G(2d,p)
 ****
 36  39  40 0
 6-311+G(2d,p)
 ****
 1  2  3  4  5  16  17  18  19  20  21  22  23  24 0
 3-21G
 ****
 26  27  29  30  31  37  38  41  42  43  44  45  46  47 0
 3-21G
 ****
 48 0
 3-21G
 ****


