%nproc=1
%NoSave
%Mem=1900MB
#P OB98/GEN NMR

erre ene a

0 1
  C      157.745      10.690      12.575
  O      158.972      10.041      12.307
  H      157.919      11.469      13.323
  H      157.013       9.982      12.970
  H      157.357      11.162      11.667
  P      158.982       8.806      11.287
  C      160.356       8.421       9.134
  O      160.370       8.881      10.482
  C      161.431       9.147       8.317
  O      161.064      10.547       8.250
  C      162.825       9.043       8.956
  O      163.821       8.559       8.055
  C      163.034      10.426       9.563
  O      164.387      10.810       9.701
  C      162.200      11.335       8.654
  N      161.767      12.576       9.293
  C      162.650      13.651       9.264
  O      163.758      13.646       8.723
  N      162.216      14.792       9.892
  C      161.023      14.952      10.530
  O      160.685      16.002      11.068
  C      160.140      13.777      10.545
  C      160.547      12.658       9.937
  O      157.769       8.665      10.429
  O      159.185       7.526      12.229
  H      164.784      10.259      10.406
  H      158.331       7.069      12.347
  H      162.843      15.580       9.868
  H      159.190      13.865      11.052
  H      159.921      11.770       9.927
  H      162.763      11.602       7.759
  H      162.596      10.428      10.569
  H      162.832       8.298       9.760
  H      161.424       8.754       7.294
  H      159.361       8.622       8.720
  H      160.539       7.341       9.112
  P      164.537       7.139       8.170
  C      165.827       5.604       6.479
  O      165.407       6.910       6.846
  O      163.667       6.011       8.612
  O      165.649       7.376       9.317
  H      165.744       6.526       9.794
  H      166.393       5.653       5.572
  H      164.969       4.982       6.331
  H      166.435       5.193       7.257

 6  7  8  9  10  11  12  13  14  15  16  26  31  32  33  34  35 0
 6-311+G(2d,p)
 ****
 36  37 0
 6-311+G(2d,p)
 ****
 1  2  3  4  5  17  18  19  20  21  22  23  24  25 0
 3-21G
 ****
 27  28  29  30  38  39  40  41  42  43  44  45 0
 3-21G
 ****


