%nproc=1
%NoSave
%Mem=1900MB
#P OB98/GEN NMR

erre ene a

0 1
  C      -43.062    -216.814      34.377
  O      -42.972    -216.206      35.671
  P      -44.327    -216.048      36.516
  C      -44.206    -217.932      38.300
  O      -44.060    -216.546      38.019
  C      -43.670    -218.283      39.695
  O      -42.238    -218.045      39.776
  C      -44.315    -217.462      40.821
  O      -44.334    -218.265      42.008
  C      -43.329    -216.328      41.007
  O      -43.500    -215.688      42.276
  C      -42.012    -217.073      40.824
  N      -37.650    -215.118      42.441
  C      -38.540    -215.967      43.076
  N      -38.187    -216.383      44.311
  N      -39.662    -216.372      42.545
  C      -39.859    -215.900      41.290
  C      -39.063    -215.050      40.556
  C      -37.837    -214.590      41.166
  O      -37.015    -213.825      40.659
  N      -39.611    -214.781      39.328
  C      -40.745    -215.465      39.323
  N      -40.916    -216.188      40.472
  O      -45.264    -217.198      35.904
  O      -44.966    -214.706      36.386
  H      -42.824    -214.976      42.339
  H      -45.968    -216.794      35.363
  H      -36.804    -214.824      42.900
  H      -41.461    -215.472      38.516
  H      -41.703    -217.617      41.728
  H      -43.473    -215.574      40.227
  H      -37.317    -216.149      44.760
  H      -45.332    -217.110      40.610
  H      -38.799    -217.043      44.786
  H      -43.834    -219.348      39.873
  H      -43.672    -218.526      37.548
  H      -45.260    -218.203      38.199
  P      -45.632    -219.170      42.256
  C      -45.693    -221.683      41.612
  O      -45.101    -220.674      42.403
  O      -46.370    -219.171      40.832
  O      -46.530    -218.691      43.349
  H      -47.322    -219.336      40.943
  H      -45.017    -221.934      40.787
  H      -46.660    -221.372      41.204
  H      -45.850    -222.577      42.230
  H      -42.089    -216.853      33.933
  H      -43.715    -216.236      33.756
  H      -43.449    -217.807      34.475

 3  4  5  6  7  8  9  10  11  12  23  26  30  31 0
 6-311+G(2d,p)
 ****
 33  35  36  37  38 0
 6-311+G(2d,p)
 ****
 1  2  13  14  15  16  17  18  19  20  21  22  24  25 0
 3-21G
 ****
 27  28  29  32  34  39  40  41  42  43  44  45  46  47  48  49 0
 3-21G
 ****


