%nproc=1
%NoSave
%Mem=1900MB
#P OB98/GEN NMR

erre ene a

0 1
  C      138.053     670.898     253.795
  O      137.850     669.610     254.356
  P      138.182     668.278     253.513
  C      136.115     668.746     252.032
  O      136.773     667.824     252.884
  C      135.146     667.996     251.122
  O      135.871     667.227     250.151
  C      134.235     667.003     251.845
  O      133.191     667.672     252.537
  C      133.794     666.121     250.687
  O      132.748     666.753     249.941
  C      135.077     666.050     249.829
  N      135.844     664.827     250.031
  C      135.380     663.694     249.360
  O      134.384     663.733     248.641
  N      136.088     662.516     249.509
  C      137.133     662.480     250.267
  N      137.830     661.307     250.315
  C      137.625     663.646     251.028
  C      136.936     664.780     250.872
  O      138.902     667.219     254.268
  O      138.978     668.813     252.229
  H      132.011     666.912     250.557
  H      139.954     668.881     252.367
  H      138.497     663.557     251.660
  H      137.241     665.673     251.369
  H      134.826     666.149     248.763
  H      133.448     665.131     250.998
  H      134.820     666.409     252.558
  H      134.538     668.752     250.583
  H      137.561     660.591     249.648
  H      136.867     669.245     251.410
  H      138.794     661.279     250.628
  H      135.593     669.499     252.633
  P      133.314     667.800     254.129
  C      133.192     665.255     254.654
  O      132.548     666.507     254.728
  O      132.356     669.030     254.475
  O      134.701     667.996     254.624
  H      132.887     669.833     254.634
  H      132.660     664.549     255.306
  H      134.227     665.329     254.999
  H      133.162     664.883     253.629
  H      137.775     671.646     254.508
  H      137.452     671.003     252.916
  H      139.085     671.016     253.538

 3  4  5  6  7  8  9  10  11  12  13  23  27  28  29  30  32 0
 6-311+G(2d,p)
 ****
 34  35 0
 6-311+G(2d,p)
 ****
 1  2  14  15  16  17  18  19  20  21  22  24  25  26 0
 3-21G
 ****
 31  33  36  37  38  39  40  41  42  43  44  45  46 0
 3-21G
 ****


