%nproc=1
%NoSave
%Mem=1900MB
#P OB98/GEN NMR

erre ene a

0 1
  C      459.718     538.856     -52.047
  O      458.602     539.704     -52.250
  H      460.364     538.914     -52.926
  H      459.387     537.819     -51.920
  H      460.279     539.180     -51.165
  P      457.462     539.676     -51.113
  C      456.915     542.187     -51.575
  O      456.451     540.843     -51.569
  C      456.028     543.042     -52.472
  O      456.278     542.743     -53.869
  C      454.526     542.817     -52.275
  O      454.005     543.457     -51.128
  C      454.002     543.446     -53.558
  O      454.067     544.878     -53.453
  C      455.021     542.912     -54.586
  N      454.606     541.642     -55.202
  C      453.770     541.732     -56.319
  O      453.408     542.820     -56.752
  N      453.324     540.564     -56.905
  C      453.706     539.413     -56.437
  N      453.231     538.299     -57.062
  C      454.596     539.277     -55.266
  C      455.005     540.413     -54.705
  O      458.191     540.318     -49.845
  O      456.824     538.350     -50.860
  H      453.583     545.240     -54.220
  H      457.528     540.486     -49.125
  H      454.878     538.297     -54.899
  H      455.664     540.394     -53.847
  H      455.198     543.646     -55.389
  H      452.962     543.189     -53.772
  H      454.272     541.750     -52.276
  H      456.292     544.098     -52.309
  H      452.575     538.425     -57.820
  H      457.951     542.197     -51.946
  H      453.348     537.368     -56.678
  H      456.900     542.592     -50.556
  P      452.531     543.033     -50.645
  C      452.919     543.592     -48.128
  O      452.207     543.886     -49.325
  O      452.751     541.551     -50.085
  O      451.486     543.084     -51.708
  H      451.962     540.995     -50.257
  H      452.588     544.244     -47.347
  H      453.967     543.735     -48.292
  H      452.737     542.576     -47.845

 6  7  8  9  10  11  12  13  14  15  16  26  30  31  32  33  35 0
 6-311+G(2d,p)
 ****
 37  38 0
 6-311+G(2d,p)
 ****
 1  2  3  4  5  17  18  19  20  21  22  23  24  25 0
 3-21G
 ****
 27  28  29  34  36  39  40  41  42  43  44  45  46 0
 3-21G
 ****


