%nproc=1
%NoSave
%Mem=1900MB
#P OB98/GEN NMR

erre ene a

0 1
  C     -375.906    -199.734     541.607
  O     -376.257    -198.911     542.702
  P     -375.533    -197.501     542.929
  C     -373.853    -198.516     544.613
  O     -374.023    -197.857     543.349
  C     -372.384    -198.863     544.851
  O     -371.934    -199.850     543.888
  C     -371.430    -197.693     544.707
  O     -371.483    -196.859     545.848
  C     -370.100    -198.406     544.498
  O     -369.534    -198.813     545.753
  C     -370.530    -199.646     543.671
  N     -370.218    -199.494     542.252
  C     -368.875    -199.300     541.933
  O     -368.024    -199.242     542.823
  N     -368.515    -199.140     540.610
  C     -369.435    -199.150     539.694
  N     -369.026    -198.977     538.401
  C     -370.872    -199.315     539.984
  C     -371.193    -199.475     541.275
  O     -376.246    -196.551     543.837
  O     -375.364    -196.931     541.431
  H     -368.742    -199.350     545.531
  H     -376.220    -196.618     541.059
  H     -371.604    -199.294     539.189
  H     -372.220    -199.596     541.584
  H     -370.022    -200.545     544.038
  H     -369.357    -197.779     543.991
  H     -371.678    -197.117     543.796
  H     -372.297    -199.300     545.858
  H     -368.043    -198.836     538.252
  H     -374.453    -199.430     544.602
  H     -369.656    -198.925     537.618
  H     -374.230    -197.857     545.407
  P     -371.597    -195.270     545.681
  C     -369.117    -194.806     546.167
  O     -370.165    -194.714     545.209
  O     -372.211    -194.544     546.830
  O     -372.494    -195.093     544.357
  H     -373.164    -194.394     544.511
  H     -368.161    -194.724     545.652
  H     -369.159    -195.775     546.703
  H     -369.198    -193.996     546.890
  H     -376.496    -200.626     541.628
  H     -374.869    -199.991     541.672
  H     -376.087    -199.208     540.693

 3  4  5  6  7  8  9  10  11  12  13  23  27  28  29  30  32 0
 6-311+G(2d,p)
 ****
 34  35 0
 6-311+G(2d,p)
 ****
 1  2  14  15  16  17  18  19  20  21  22  24  25  26 0
 3-21G
 ****
 31  33  36  37  38  39  40  41  42  43  44  45  46 0
 3-21G
 ****


