%nproc=1
%NoSave
%Mem=1900MB
#P OB98/GEN NMR

erre ene a

0 1
  C       70.834    -418.294    -696.036
  O       70.491    -417.306    -695.086
  H       71.742    -417.980    -696.558
  H       70.028    -418.408    -696.767
  H       71.023    -419.249    -695.540
  P       69.189    -417.588    -694.194
  C       66.627    -417.598    -694.636
  O       67.923    -417.290    -695.133
  C       65.602    -417.468    -695.758
  O       65.802    -418.524    -696.725
  C       64.156    -417.611    -695.295
  O       63.666    -416.429    -694.694
  C       63.462    -417.959    -696.601
  O       63.163    -416.782    -697.364
  C       64.514    -418.809    -697.323
  N       61.419    -422.514    -698.975
  C       61.521    -421.210    -699.308
  N       62.384    -420.289    -698.828
  C       63.219    -420.844    -697.937
  C       63.241    -422.161    -697.502
  C       62.284    -423.022    -698.065
  N       62.165    -424.345    -697.711
  N       64.223    -422.342    -696.548
  C       64.789    -421.161    -696.415
  N       64.222    -420.225    -697.233
  O       69.189    -416.365    -693.158
  O       69.172    -418.906    -693.498
  H       62.847    -417.097    -698.235
  H       69.557    -416.664    -692.301
  H       60.807    -420.855    -700.046
  H       65.607    -420.934    -695.740
  H       64.590    -418.559    -698.389
  H       62.527    -418.478    -696.417
  H       64.065    -418.461    -694.608
  H       65.758    -416.507    -696.268
  H       66.370    -416.900    -693.832
  H       66.632    -418.621    -694.235
  H       61.411    -424.885    -698.106
  H       62.729    -424.704    -696.953
  P       62.338    -416.543    -693.799
  C       60.079    -417.798    -694.136
  O       61.189    -417.141    -694.739
  O       61.894    -415.022    -693.570
  O       62.522    -417.268    -692.507
  H       61.509    -414.918    -692.678
  H       59.408    -418.136    -694.898
  H       59.569    -417.115    -693.489
  H       60.426    -418.636    -693.568

 6  7  8  9  10  11  12  13  14  15  25  28  32  33  34  35 0
 6-311+G(2d,p)
 ****
 36  37  40 0
 6-311+G(2d,p)
 ****
 1  2  3  4  5  16  17  18  19  20  21  22  23  24 0
 3-21G
 ****
 26  27  29  30  31  38  39 41  42  43  44  45  46  47  48 0
 3-21G
 ****


