%nproc=1
%NoSave
%Mem=1900MB
#P OB98/GEN NMR

erre ene a

0 1
  C      218.712    -142.277    -182.662
  O      218.392    -141.007    -182.090
  P      217.813    -139.901    -183.099
  C      216.047    -138.143    -182.375
  O      217.375    -138.623    -182.233
  C      215.687    -137.198    -181.226
  O      215.746    -137.847    -179.942
  C      216.610    -135.991    -181.126
  O      216.240    -135.017    -182.086
  C      216.375    -135.540    -179.691
  O      215.205    -134.702    -179.591
  C      216.148    -136.868    -178.951
  N      219.163    -136.132    -174.944
  C      218.170    -135.325    -175.465
  N      217.927    -134.171    -174.809
  N      217.474    -135.626    -176.531
  C      217.822    -136.812    -177.081
  C      218.767    -137.710    -176.643
  C      219.533    -137.364    -175.463
  O      220.406    -138.055    -174.951
  N      218.794    -138.835    -177.427
  C      217.954    -138.557    -178.409
  N      217.292    -137.372    -178.211
  O      216.426    -140.534    -183.585
  O      218.719    -139.613    -184.249
  H      215.388    -133.847    -180.019
  H      216.494    -140.800    -184.521
  H      219.673    -135.847    -174.126
  H      217.773    -139.189    -179.266
  H      215.328    -136.789    -178.227
  H      217.210    -134.946    -179.309
  H      218.424    -133.878    -173.981
  H      217.653    -136.303    -181.257
  H      217.198    -133.569    -175.170
  H      214.654    -136.862    -181.390
  H      215.347    -138.981    -182.395
  H      215.958    -137.635    -183.341
  P      217.092    -134.937    -183.441
  C      215.096    -133.796    -184.641
  O      216.473    -133.761    -184.330
  O      216.665    -136.273    -184.216
  O      218.570    -134.883    -183.240
  H      217.458    -136.701    -184.592
  H      214.735    -132.771    -184.758
  H      214.516    -134.287    -183.855
  H      214.952    -134.332    -185.583
  H      219.086    -142.928    -181.899
  H      219.457    -142.150    -183.419
  H      217.832    -142.705    -183.096

 3  4  5  6  7  8  9  10  11  12  23  26  30  31 0
 6-311+G(2d,p)
 ****
 33  35  36  37  38 0
 6-311+G(2d,p)
 ****
 1  2  13  14  15  16  17  18  19  20  21  22  24  25 0
 3-21G
 ****
 27  28  29  32  34  39  40  41  42  43  44  45  46  47  48  49 0
 3-21G
 ****


