%nproc=1
%NoSave
%Mem=1900MB
#P OB98/GEN NMR

erre ene a

0 1
  C      -83.610    -123.890     222.536
  O      -82.344    -123.344     222.923
  P      -82.277    -121.773     223.235
  C      -81.114    -120.421     221.349
  O      -80.960    -121.166     222.548
  C      -79.779    -120.284     220.599
  O      -78.884    -119.378     221.300
  C      -79.029    -121.612     220.439
  O      -78.268    -121.554     219.227
  C      -78.070    -121.592     221.615
  O      -76.991    -122.507     221.430
  C      -77.688    -120.113     221.632
  N      -73.472    -119.386     224.305
  C      -73.642    -119.865     223.020
  N      -72.516    -120.162     222.335
  N      -74.810    -120.037     222.455
  C      -75.842    -119.663     223.249
  C      -75.806    -119.182     224.540
  C      -74.507    -119.022     225.158
  O      -74.299    -118.615     226.297
  N      -77.068    -118.941     225.019
  C      -77.865    -119.281     224.024
  N      -77.168    -119.690     222.919
  O      -81.933    -121.732     224.800
  O      -83.548    -121.043     222.943
  H      -76.437    -122.471     222.241
  H      -82.714    -121.441     225.301
  H      -72.550    -119.283     224.693
  H      -78.943    -119.252     224.052
  H      -76.920    -119.874     220.884
  H      -78.601    -121.870     222.532
  H      -71.585    -120.004     222.689
  H      -79.665    -122.502     220.425
  H      -72.610    -120.475     221.375
  H      -79.977    -119.852     219.612
  H      -81.507    -119.426     221.571
  H      -81.872    -120.907     220.724
  P      -78.765    -122.478     218.012
  C      -77.210    -124.472     218.610
  O      -77.549    -123.464     217.676
  O      -78.795    -121.477     216.764
  O      -80.086    -123.139     218.235
  H      -79.428    -121.790     216.095
  H      -77.584    -125.433     218.247
  H      -77.626    -124.268     219.601
  H      -76.120    -124.521     218.690
  H      -83.507    -124.940     222.361
  H      -83.947    -123.410     221.641
  H      -84.323    -123.727     223.317

 3  4  5  6  7  8  9  10  11  12  23  26  30  31 0
 6-311+G(2d,p)
 ****
 33  35  36  37  38 0
 6-311+G(2d,p)
 ****
 1  2  13  14  15  16  17  18  19  20  21  22  24  25 0
 3-21G
 ****
 27  28  29  32  34  39  40  41  42  43  44  45  46  47  48  49 0
 3-21G
 ****


