%nproc=1
%NoSave
%Mem=1900MB
#P OB98/GEN NMR

erre ene a

0 1
  C       45.555    -166.299      78.659
  O       45.778    -164.904      78.751
  P       45.778    -164.003      77.429
  C       47.234    -163.893      75.274
  O       46.944    -164.562      76.482
  C       48.304    -164.641      74.469
  O       47.891    -166.024      74.358
  C       48.493    -164.146      73.039
  O       49.755    -164.614      72.559
  C       47.376    -164.862      72.313
  O       47.601    -164.929      70.908
  C       47.323    -166.228      73.043
  N       45.941    -166.729      73.154
  C       45.604    -167.825      72.366
  O       46.419    -168.420      71.662
  N       44.279    -168.165      72.350
  C       43.285    -167.492      72.996
  O       42.095    -167.612      72.731
  C       43.730    -166.503      73.990
  C       45.018    -166.152      74.006
  O       46.349    -162.604      77.953
  O       44.450    -163.850      76.772
  H       48.313    -165.595      70.765
  H       45.615    -161.993      78.151
  H       44.014    -168.867      71.669
  H       42.984    -166.053      74.630
  H       45.366    -165.387      74.693
  H       47.916    -166.986      72.517
  H       46.438    -164.315      72.471
  H       48.424    -163.060      72.926
  H       49.254    -164.615      75.016
  H       47.561    -162.873      75.496
  H       46.329    -163.802      74.664
  P       50.544    -163.697      71.507
  C       49.801    -162.632      69.293
  O       49.709    -163.759      70.139
  O       52.007    -163.960      71.379
  O       50.250    -162.211      72.032
  H       50.907    -161.595      71.661
  H       49.664    -162.956      68.258
  H       50.773    -162.139      69.384
  H       49.010    -161.923      69.550
  H       45.591    -166.731      79.637
  H       46.312    -166.741      78.046
  H       44.594    -166.479      78.225

 3  4  5  6  7  8  9  10  11  12  13  23  28  29  30  31  32 0
 6-311+G(2d,p)
 ****
 33  34 0
 6-311+G(2d,p)
 ****
 1  2  14  15  16  17  18  19  20  21  22  24  25  26  27 0
 3-21G
 ****
 35  36  37  38  39  40  41  42  43  44  45 0
 3-21G
 ****


