%nproc=1
%NoSave
%Mem=1900MB
#P OB98/GEN NMR

erre ene a

0 1
  C      -30.944     -12.983      84.376
  O      -31.641     -12.647      85.559
  H      -31.495     -12.587      83.519
  H      -30.873     -14.070      84.277
  H      -29.942     -12.544      84.386
  P      -30.972     -13.103      86.944
  C      -32.897     -14.827      87.236
  O      -31.494     -14.594      87.226
  C      -33.173     -16.327      87.277
  O      -32.486     -16.971      86.179
  C      -32.672     -17.022      88.538
  O      -33.550     -16.832      89.633
  C      -32.592     -18.468      88.067
  O      -33.866     -19.119      88.146
  C      -32.172     -18.317      86.599
  N      -28.651     -21.995      86.363
  C      -29.994     -22.038      86.503
  N      -30.867     -21.008      86.537
  C      -30.219     -19.839      86.400
  C      -28.857     -19.639      86.256
  C      -28.052     -20.788      86.237
  N      -26.681     -20.743      86.131
  N      -28.569     -18.289      86.191
  C      -29.737     -17.686      86.283
  N      -30.761     -18.583      86.406
  O      -31.753     -12.217      88.026
  O      -29.494     -12.918      87.029
  H      -34.540     -18.437      87.959
  H      -31.239     -11.410      88.219
  H      -30.425     -23.031      86.604
  H      -29.890     -16.614      86.276
  H      -32.723     -18.998      85.939
  H      -31.894     -19.046      88.675
  H      -31.661     -16.674      88.787
  H      -34.250     -16.488      87.146
  H      -33.342     -14.403      86.328
  H      -33.332     -14.331      88.111
  H      -26.165     -21.608      86.147
  H      -26.217     -19.845      86.144
  P      -32.925     -16.461      91.060
  C      -33.766     -18.742      91.983
  O      -32.684     -17.832      91.857
  O      -34.152     -15.782      91.832
  O      -31.735     -15.563      91.004
  H      -34.071     -14.811      91.811
  H      -33.447     -19.601      92.536
  H      -34.092     -19.046      91.010
  H      -34.574     -18.266      92.497

 6  7  8  9  10  11  12  13  14  15  25  28  32  33  34  35 0
 6-311+G(2d,p)
 ****
 36  37  40 0
 6-311+G(2d,p)
 ****
 1  2  3  4  5  16  17  18  19  20  21  22  23  24 0
 3-21G
 ****
 26  27  29  30  31  38  39 41  42  43  44  45  46  47  48 0
 3-21G
 ****


