%nproc=1
%NoSave
%Mem=1900MB
#P OB98/GEN NMR

erre ene a

0 1
  C      305.480     166.247    -146.198
  O      304.800     166.556    -144.991
  P      303.201     166.408    -144.974
  C      303.083     163.985    -144.027
  O      302.879     164.845    -145.136
  C      301.748     163.622    -143.372
  O      302.014     162.841    -142.176
  C      300.892     164.824    -142.948
  O      299.522     164.432    -143.086
  C      301.231     164.980    -141.475
  O      300.237     165.695    -140.754
  C      301.393     163.520    -141.066
  N      301.348     162.978    -136.036
  C      300.301     163.199    -136.912
  N      299.062     163.221    -136.370
  N      300.451     163.384    -138.199
  C      301.746     163.319    -138.595
  C      302.871     163.145    -137.821
  C      302.684     162.907    -136.408
  O      303.575     162.620    -135.608
  N      304.013     163.228    -138.570
  C      303.575     163.370    -139.804
  N      302.207     163.384    -139.877
  O      302.770     167.031    -146.383
  O      302.503     167.059    -143.821
  H      300.450     165.621    -139.798
  H      302.540     167.977    -146.294
  H      301.166     162.827    -135.055
  H      304.199     163.461    -140.684
  H      300.429     163.030    -140.864
  H      302.181     165.524    -141.369
  H      298.869     163.059    -135.394
  H      301.095     165.729    -143.526
  H      298.275     163.350    -136.995
  H      301.188     162.979    -144.064
  H      303.705     164.499    -143.288
  H      303.614     163.083    -144.355
  P      298.549     165.398    -143.914
  C      298.626     164.112    -146.165
  O      298.957     165.294    -145.458
  O      299.059     166.861    -143.498
  O      297.094     165.236    -143.607
  H      298.309     167.482    -143.502
  H      298.599     164.338    -147.233
  H      297.653     163.725    -145.857
  H      299.391     163.352    -145.981
  H      306.532     166.390    -146.062
  H      305.131     166.890    -146.979
  H      305.290     165.228    -146.464

 3  4  5  6  7  8  9  10  11  12  23  26  30  31 0
 6-311+G(2d,p)
 ****
 33  35  36  37  38 0
 6-311+G(2d,p)
 ****
 1  2  13  14  15  16  17  18  19  20  21  22  24  25 0
 3-21G
 ****
 27  28  29  32  34  39  40  41  42  43  44  45  46  47  48  49 0
 3-21G
 ****


