%nproc=1
%NoSave
%Mem=1900MB
#P OB98/GEN NMR

erre ene a

0 1
  C     -195.530     137.763    -108.908
  O     -195.111     138.000    -110.243
  P     -193.729     138.754    -110.542
  C     -192.913     141.192    -110.579
  O     -194.033     140.327    -110.435
  C     -193.314     142.474    -111.304
  O     -193.610     142.159    -112.686
  C     -194.551     143.144    -110.715
  O     -194.396     144.563    -110.803
  C     -195.681     142.729    -111.640
  O     -196.751     143.689    -111.618
  C     -194.945     142.610    -112.979
  N     -198.032     142.011    -117.035
  C     -197.576     143.118    -116.409
  N     -196.780     143.204    -115.321
  C     -196.405     141.981    -114.916
  C     -196.784     140.761    -115.457
  C     -197.642     140.803    -116.569
  N     -198.093     139.672    -117.215
  N     -196.221     139.717    -114.750
  C     -195.502     140.296    -113.815
  N     -195.572     141.663    -113.879
  O     -193.044     138.339    -111.798
  O     -192.829     138.471    -109.252
  H     -196.503     144.409    -112.235
  H     -191.898     138.330    -109.513
  H     -197.900     144.063    -116.836
  H     -194.925     139.778    -113.063
  H     -194.873     143.578    -113.487
  H     -196.087     141.764    -111.316
  H     -194.737     142.852    -109.675
  H     -192.460     143.163    -111.298
  H     -192.150     140.673    -111.166
  H     -198.603     139.802    -118.074
  H     -197.668     138.786    -116.977
  H     -192.498     141.416    -109.591
  P     -194.936     145.410    -109.542
  C     -197.338     146.041    -108.762
  O     -196.528     145.242    -109.594
  O     -194.397     146.802    -109.531
  O     -194.453     144.495    -108.322
  H     -194.342     143.556    -108.597
  H     -198.382     145.754    -108.909
  H     -197.228     147.096    -109.026
  H     -197.074     145.890    -107.711
  H     -196.470     137.252    -108.915
  H     -195.636     138.697    -108.396
  H     -194.800     137.162    -108.407

 3  4  5  6  7  8  9  10  11  12  22  25  29  30  31  32 0
 6-311+G(2d,p)
 ****
 33  36  37 0
 6-311+G(2d,p)
 ****
 1  2  13  14  15  16  17  18  19  20  21  23  24  26 0
 3-21G
 ****
 27  28  34  35  38  39  40  41  42  43  44  45  46  47  48 0
 3-21G
 ****


