%nproc=1
%NoSave
%Mem=1900MB
#P OB98/GEN NMR

erre ene a

0 1
  C     -226.723      62.959     201.777
  O     -226.263      62.821     200.441
  P     -225.025      63.685     199.898
  C     -223.057      63.167     198.327
  O     -224.070      62.625     199.165
  C     -222.115      62.061     197.861
  O     -221.427      61.526     199.017
  C     -222.780      60.854     197.197
  O     -223.048      61.015     195.812
  C     -221.694      59.799     197.378
  O     -220.663      59.987     196.391
  C     -221.157      60.123     198.774
  N     -220.635      56.019     201.785
  C     -219.815      56.581     200.869
  N     -220.032      57.663     200.095
  C     -221.231      58.204     200.369
  C     -222.174      57.750     201.276
  C     -221.838      56.599     202.010
  N     -222.669      56.043     202.958
  N     -223.294      58.560     201.263
  C     -223.021      59.490     200.374
  N     -221.785      59.324     199.812
  O     -224.373      64.544     200.926
  O     -225.632      64.523     198.681
  H     -221.108      60.037     195.523
  H     -225.036      65.265     198.458
  H     -218.852      56.091     200.739
  H     -223.686      60.299     200.102
  H     -220.073      59.983     198.852
  H     -222.068      58.779     197.256
  H     -223.678      60.543     197.744
  H     -221.362      62.504     197.196
  H     -222.487      63.903     198.908
  H     -222.293      55.300     203.524
  H     -223.487      56.566     203.239
  H     -223.516      63.679     197.479
  P     -224.163      60.051     195.166
  C     -226.265      60.489     193.667
  O     -225.168      61.022     194.378
  O     -224.802      59.111     196.127
  O     -223.360      59.320     193.990
  H     -223.084      59.893     193.257
  H     -226.906      61.313     193.344
  H     -226.851      59.818     194.299
  H     -225.912      59.950     192.783
  H     -227.550      62.300     201.939
  H     -227.033      63.969     201.945
  H     -225.932      62.712     202.454

 3  4  5  6  7  8  9  10  11  12  22  25  29  30  31  32 0
 6-311+G(2d,p)
 ****
 33  36  37 0
 6-311+G(2d,p)
 ****
 1  2  13  14  15  16  17  18  19  20  21  23  24  26 0
 3-21G
 ****
 27  28  34  35  38  39  40  41  42  43  44  45  46  47  48 0
 3-21G
 ****


