%nproc=1
%NoSave
%Mem=1900MB
#P OB98/GEN NMR

erre ene a

0 1
  C      203.858      43.859      78.399
  O      204.890      43.394      79.238
  H      204.286      44.112      77.425
  H      203.415      44.762      78.831
  H      203.083      43.103      78.256
  P      204.497      42.539      80.533
  C      206.258      40.648      80.604
  O      205.846      41.900      81.137
  C      207.760      40.430      80.762
  O      208.479      41.327      79.889
  C      208.250      40.717      82.185
  O      208.155      39.615      83.071
  C      209.707      41.110      81.949
  O      210.566      39.961      81.952
  C      209.679      41.753      80.561
  N      212.586      45.956      80.297
  C      212.981      44.631      80.372
  N      214.312      44.410      80.422
  N      212.134      43.633      80.415
  C      210.839      44.016      80.455
  C      210.329      45.297      80.408
  C      211.266      46.390      80.288
  O      210.969      47.574      80.199
  N      208.957      45.299      80.516
  C      208.651      44.030      80.720
  N      209.752      43.201      80.609
  O      203.755      41.254      79.927
  O      203.621      43.238      81.530
  H      210.263      39.356      81.243
  H      203.075      40.941      80.552
  H      213.278      46.681      80.236
  H      207.650      43.646      80.899
  H      210.524      41.415      79.943
  H      210.065      41.774      82.742
  H      215.001      45.146      80.481
  H      207.726      41.581      82.607
  H      214.635      43.472      80.671
  H      208.018      39.411      80.450
  H      205.987      40.662      79.543
  H      205.703      39.831      81.075
  P      208.303      39.806      84.654
  C      206.504      37.951      85.118
  O      207.791      38.480      85.372
  O      207.161      40.880      84.987
  O      209.648      40.256      85.122
  H      207.544      41.775      85.060
  H      206.362      37.064      85.699
  H      206.414      37.715      84.078
  H      205.762      38.674      85.385

 6  7  8  9  10  11  12  13  14  15  26  29  33  34 0
 6-311+G(2d,p)
 ****
 36  38  39  40  41 0
 6-311+G(2d,p)
 ****
 1  2  3  4  5  16  17  18  19  20  21  22  23  24  25 0
 3-21G
 ****
 27  28  30  31  32  35  37  42  43  44  45  46  47 0
 3-21G
 ****
 48  49 0
 3-21G
 ****


