%nproc=1
%NoSave
%Mem=1900MB
#P OB98/GEN NMR

erre ene a

0 1
  C     -798.758    -942.689     591.909
  O     -798.357    -943.582     592.924
  H     -799.421    -941.937     592.339
  H     -799.308    -943.223     591.117
  H     -797.890    -942.185     591.470
  P     -797.375    -944.785     592.541
  C     -798.520    -946.596     593.992
  O     -797.362    -945.766     593.805
  C     -798.228    -947.645     595.059
  O     -797.170    -948.534     594.640
  C     -797.789    -947.067     596.413
  O     -798.918    -946.613     597.158
  C     -797.107    -948.274     597.021
  O     -798.105    -949.207     597.510
  C     -796.378    -948.870     595.815
  N     -791.543    -949.124     597.331
  C     -792.677    -949.748     597.840
  N     -792.491    -950.542     598.912
  N     -793.866    -949.622     597.325
  C     -793.906    -948.754     596.282
  C     -792.861    -948.056     595.711
  C     -791.543    -948.246     596.247
  O     -790.518    -947.748     595.818
  N     -793.310    -947.228     594.701
  C     -794.610    -947.460     594.653
  N     -795.017    -948.367     595.604
  O     -796.009    -944.401     592.052
  O     -798.182    -945.608     591.435
  H     -797.618    -950.043     597.713
  H     -797.971    -945.311     590.534
  H     -790.642    -949.247     597.775
  H     -795.289    -946.995     593.947
  H     -796.307    -949.961     595.855
  H     -796.458    -948.010     597.867
  H     -791.671    -950.440     599.526
  H     -797.050    -946.273     596.274
  H     -793.299    -950.962     599.341
  H     -799.136    -948.250     595.181
  H     -798.729    -947.074     593.029
  H     -799.374    -945.996     594.272
  P     -799.312    -945.052     597.222
  C     -798.927    -944.872     599.751
  O     -799.860    -944.829     598.685
  O     -800.211    -944.599     596.124
  O     -797.907    -944.313     597.258
  H     -797.544    -944.110     596.351
  H     -799.436    -944.706     600.677
  H     -798.188    -944.112     599.609
  H     -798.453    -945.831     599.772

 6  7  8  9  10  11  12  13  14  15  26  29  33  34 0
 6-311+G(2d,p)
 ****
 36  38  39  40  41 0
 6-311+G(2d,p)
 ****
 1  2  3  4  5  16  17  18  19  20  21  22  23  24  25 0
 3-21G
 ****
 27  28  30  31  32  35  37  42  43  44  45  46  47 0
 3-21G
 ****
 48  49 0
 3-21G
 ****


