%nproc=1
%NoSave
%Mem=1900MB
#P OB98/GEN NMR

erre ene a

0 1
  C      -86.210      27.952     244.660
  O      -85.508      28.649     245.672
  H      -85.700      28.111     243.707
  H      -87.232      28.333     244.580
  H      -86.226      26.881     244.881
  P      -86.142      28.588     247.146
  C      -86.332      31.172     247.251
  O      -85.799      29.995     247.841
  C      -85.303      32.299     247.282
  O      -84.843      32.533     248.630
  C      -84.064      32.042     246.431
  O      -84.299      32.385     245.075
  C      -83.050      32.956     247.103
  O      -83.220      34.323     246.671
  C      -83.413      32.805     248.588
  N      -78.854      31.272     250.122
  C      -79.216      32.359     249.353
  N      -78.213      33.145     248.901
  N      -80.452      32.650     249.042
  C      -81.347      31.750     249.513
  C      -81.113      30.631     250.282
  C      -79.745      30.353     250.664
  O      -79.368      29.451     251.411
  N      -82.284      29.978     250.576
  C      -83.215      30.679     249.957
  N      -82.695      31.761     249.294
  O      -85.189      27.555     247.919
  O      -87.568      28.161     247.214
  H      -82.681      34.905     247.236
  H      -85.737      27.014     248.519
  H      -77.890      31.115     250.357
  H      -84.273      30.454     249.970
  H      -83.245      33.734     249.145
  H      -82.026      32.678     246.847
  H      -77.258      32.820     248.858
  H      -83.731      31.001     246.525
  H      -78.476      33.898     248.278
  H      -85.809      33.217     246.952
  H      -87.221      31.476     247.811
  H      -86.617      30.959     246.214
  P      -83.695      31.432     243.938
  C      -81.715      32.952     243.221
  O      -82.954      32.360     242.857
  O      -85.004      30.927     243.164
  O      -82.899      30.278     244.447
  H      -85.195      30.002     243.405
  H      -81.346      33.537     242.405
  H      -81.009      32.184     243.458
  H      -81.857      33.581     244.075

 6  7  8  9  10  11  12  13  14  15  26  29  33  34 0
 6-311+G(2d,p)
 ****
 36  38  39  40  41 0
 6-311+G(2d,p)
 ****
 1  2  3  4  5  16  17  18  19  20  21  22  23  24  25 0
 3-21G
 ****
 27  28  30  31  32  35  37  42  43  44  45  46  47 0
 3-21G
 ****
 48  49 0
 3-21G
 ****


