%nproc=1
%NoSave
%Mem=1900MB
#P OB98/GEN NMR

erre ene a

0 1
  C        1.757       4.076      -3.885
  O        0.426       3.645      -3.581
  P        0.109       2.144      -3.109
  C        0.787       2.269      -0.636
  O       -0.292       2.117      -1.552
  C        0.367       2.927       0.687
  O       -0.015       4.314       0.481
  C       -0.809       2.249       1.402
  O       -0.590       2.451       2.800
  C       -1.991       3.073       0.922
  O       -3.143       2.942       1.742
  C       -1.376       4.468       0.923
  N       -4.909       8.172       0.779
  C       -4.274       7.578       1.811
  N       -3.320       6.627       1.769
  C       -2.999       6.324       0.502
  C       -3.555       6.853      -0.653
  C       -4.566       7.814      -0.480
  N       -5.250       8.389      -1.527
  N       -2.995       6.275      -1.775
  C       -2.126       5.404      -1.303
  N       -2.088       5.398       0.067
  O        1.163       1.150      -3.480
  O       -1.264       1.781      -3.849
  H       -3.803       3.597       1.449
  H       -1.191       0.890      -4.240
  H       -4.577       7.904       2.802
  H       -1.516       4.739      -1.901
  H       -1.352       4.892       1.934
  H       -2.266       2.752      -0.090
  H       -0.907       1.186       1.170
  H        1.248       2.942       1.340
  H        1.564       2.877      -1.111
  H       -6.021       8.998      -1.301
  H       -5.097       8.043      -2.462
  H        1.215       1.281      -0.433
  P       -0.719       1.253       3.855
  C        1.691       0.484       3.480
  O        0.753       0.976       4.419
  O       -1.433       0.045       3.348
  O       -1.479       1.901       5.108
  H       -1.863       1.192       5.657
  H        1.501      -0.577       3.293
  H        2.698       0.599       3.889
  H        1.627       1.036       2.537
  H        1.741       5.105      -4.177
  H        2.149       3.484      -4.686
  H        2.376       3.960      -3.020

 3  4  5  6  7  8  9  10  11  12  22  25  29  30  31  32 0
 6-311+G(2d,p)
 ****
 33  36  37 0
 6-311+G(2d,p)
 ****
 1  2  13  14  15  16  17  18  19  20  21  23  24  26 0
 3-21G
 ****
 27  28  34  35  38  39  40  41  42  43  44  45  46  47  48 0
 3-21G
 ****


