%nproc=1
%NoSave
%Mem=1900MB
#P OB98/GEN NMR

erre ene a

0 1
  C      222.276     850.534     326.948
  O      222.341     851.329     328.129
  P      221.205     851.387     329.254
  C      219.926     849.309     330.203
  O      221.156     849.967     329.987
  C      220.065     847.975     330.961
  O      220.977     847.090     330.233
  C      220.698     848.205     332.338
  O      219.888     848.585     333.438
  C      221.520     846.944     332.592
  O      220.814     845.964     333.342
  C      221.825     846.418     331.192
  N      226.466     844.284     330.846
  C      225.305     843.772     331.379
  N      225.391     842.522     331.928
  N      224.162     844.389     331.381
  C      224.237     845.653     330.874
  C      225.333     846.284     330.336
  C      226.570     845.554     330.304
  O      227.648     845.969     329.830
  N      225.023     847.559     329.947
  C      223.761     847.719     330.262
  N      223.227     846.576     330.826
  O      219.897     851.956     328.810
  O      221.816     852.381     330.364
  H      220.617     846.334     334.217
  H      221.062     852.852     330.766
  H      227.326     843.737     330.852
  H      223.167     848.610     330.094
  H      221.583     845.357     331.113
  H      222.418     847.184     333.188
  H      226.264     842.046     332.074
  H      221.430     849.012     332.228
  H      224.600     842.252     332.504
  H      219.114     847.447     331.016
  H      219.465     849.136     329.231
  H      219.249     849.959     330.772
  P      219.805     850.063     334.071
  C      219.291     852.422     333.224
  O      219.134     851.032     332.999
  O      221.326     850.563     334.110
  O      219.203     850.119     335.454
  H      221.430     851.318     334.705
  H      218.524     852.960     332.622
  H      220.284     852.739     332.930
  H      219.124     852.670     334.292
  H      223.164     850.681     326.369
  H      221.422     850.822     326.371
  H      222.193     849.502     327.217

 3  4  5  6  7  8  9  10  11  12  23  26  30  31 0
 6-311+G(2d,p)
 ****
 33  35  36  37  38 0
 6-311+G(2d,p)
 ****
 1  2  13  14  15  16  17  18  19  20  21  22  24  25 0
 3-21G
 ****
 27  28  29  32  34  39  40  41  42  43  44  45  46  47  48  49 0
 3-21G
 ****


