%nproc=1
%NoSave
%Mem=1900MB
#P OB98/GEN NMR

erre ene a

0 1
  C      564.321    1048.623     490.080
  O      564.891    1048.950     491.337
  H      564.945    1049.063     489.296
  H      563.311    1049.026     490.003
  H      564.309    1047.534     489.953
  P      564.118    1048.437     492.636
  C      566.366    1048.303     493.912
  O      565.058    1048.856     493.865
  C      566.993    1048.533     495.283
  O      566.116    1048.068     496.337
  C      568.342    1047.828     495.489
  O      569.393    1048.594     494.946
  C      568.413    1047.793     497.014
  O      568.878    1049.057     497.497
  C      566.932    1047.584     497.424
  N      565.461    1044.283     501.083
  C      565.922    1045.546     501.148
  N      566.352    1046.356     500.146
  C      566.257    1045.719     498.956
  C      565.800    1044.418     498.734
  C      565.384    1043.684     499.874
  N      564.911    1042.401     499.795
  N      565.846    1044.108     497.394
  C      566.262    1045.216     496.810
  N      566.553    1046.210     497.710
  O      563.680    1047.002     492.605
  O      562.921    1049.508     492.738
  H      568.313    1049.758     497.098
  H      563.265    1050.403     492.531
  H      565.958    1045.977     502.157
  H      566.352    1045.362     495.726
  H      566.678    1048.170     498.309
  H      569.089    1047.024     497.391
  H      568.310    1046.796     495.109
  H      567.112    1049.629     495.421
  H      567.001    1048.763     493.119
  H      564.841    1041.878     500.658
  H      564.984    1041.905     498.893
  H      566.282    1047.230     493.706
  P      570.830    1047.917     494.646
  C      571.268    1050.326     493.827
  O      571.841    1049.151     494.431
  O      570.829    1046.889     493.547
  O      571.286    1047.336     496.072
  H      571.996    1046.670     495.941
  H      572.021    1051.080     493.730
  H      570.473    1050.692     494.443
  H      570.885    1050.079     492.859

 6  7  8  9  10  11  12  13  14  15  25  28  32  33  34  35 0
 6-311+G(2d,p)
 ****
 36  39  40 0
 6-311+G(2d,p)
 ****
 1  2  3  4  5  16  17  18  19  20  21  22  23  24 0
 3-21G
 ****
 26  27  29  30  31  37  38  41  42  43  44  45  46  47 0
 3-21G
 ****
 48 0
 3-21G
 ****


