%nproc=1
%NoSave
%Mem=1900MB
#P OB98/GEN NMR

erre ene a

0 1
  C      327.035    -134.248     216.467
  O      327.597    -135.050     217.484
  H      326.177    -134.773     216.042
  H      327.764    -134.065     215.672
  H      326.692    -133.295     216.880
  P      328.945    -134.553     218.192
  C      328.940    -132.541     219.816
  O      328.513    -133.873     219.577
  C      327.966    -131.814     220.750
  O      326.658    -131.756     220.115
  C      327.778    -132.504     222.112
  O      327.481    -131.484     223.071
  C      326.558    -133.363     221.846
  O      325.995    -133.844     223.042
  C      325.719    -132.396     221.006
  N      324.649    -133.066     220.282
  C      323.377    -132.498     220.393
  O      323.206    -131.491     221.081
  N      322.329    -133.098     219.746
  C      322.517    -134.206     219.102
  N      321.433    -134.758     218.495
  C      323.833    -134.874     219.011
  C      324.847    -134.252     219.614
  O      329.855    -133.724     217.345
  O      329.659    -135.907     218.660
  H      325.664    -133.103     223.597
  H      330.409    -136.105     218.069
  H      323.934    -135.807     218.480
  H      325.849    -134.666     219.604
  H      325.276    -131.613     221.634
  H      326.827    -134.242     221.253
  H      328.656    -133.073     222.425
  H      328.305    -130.776     220.875
  H      320.549    -134.272     218.591
  H      328.982    -132.028     218.849
  H      321.457    -135.628     217.985
  H      329.942    -132.539     220.256
  P      328.611    -130.759     223.949
  C      330.520    -129.324     222.966
  O      329.116    -129.443     223.183
  O      329.716    -131.665     224.390
  O      327.833    -130.169     225.222
  H      328.435    -130.163     225.989
  H      330.725    -128.410     222.450
  H      330.861    -130.150     222.378
  H      331.028    -129.323     223.908

 6  7  8  9  10  11  12  13  14  15  16  26  30  31  32  33  35 0
 6-311+G(2d,p)
 ****
 37  38 0
 6-311+G(2d,p)
 ****
 1  2  3  4  5  17  18  19  20  21  22  23  24  25 0
 3-21G
 ****
 27  28  29  34  36  39  40  41  42  43  44  45  46 0
 3-21G
 ****


