%nproc=1
%NoSave
%Mem=1900MB
#P OB98/GEN NMR

erre ene a

0 1
  C      476.169     526.451    -663.438
  O      476.018     527.797    -663.835
  P      474.596     528.341    -664.331
  C      475.622     529.134    -666.560
  O      474.845     529.498    -665.419
  C      475.734     530.318    -667.521
  O      474.424     530.794    -667.908
  C      476.443     531.523    -666.941
  O      477.841     531.320    -666.831
  C      476.027     532.603    -667.929
  O      476.841     532.553    -669.117
  C      474.577     532.188    -668.258
  N      473.599     533.022    -667.572
  C      473.662     534.393    -667.847
  O      474.553     534.851    -668.555
  N      472.709     535.215    -667.293
  C      471.854     534.737    -666.450
  N      470.886     535.580    -665.981
  C      471.855     533.326    -666.008
  C      472.729     532.522    -666.624
  O      473.631     528.695    -663.249
  O      474.018     527.137    -665.230
  H      473.108     526.938    -664.946
  H      477.759     532.788    -668.843
  H      471.153     532.977    -665.249
  H      472.792     531.469    -666.386
  H      474.396     532.244    -669.334
  H      476.128     533.613    -667.512
  H      476.026     531.754    -665.954
  H      476.247     529.959    -668.427
  H      470.915     536.539    -666.308
  H      475.129     528.294    -667.061
  H      470.015     535.249    -665.594
  H      476.615     528.806    -666.228
  P      478.554     531.875    -665.502
  C      480.257     533.394    -666.741
  O      480.054     532.270    -665.886
  O      478.723     530.566    -664.594
  O      477.785     532.936    -664.781
  H      478.592     530.790    -663.651
  H      481.290     533.726    -666.616
  H      479.581     534.209    -666.479
  H      480.099     533.090    -667.770
  H      477.183     526.278    -663.142
  H      475.922     525.808    -664.257
  H      475.517     526.247    -662.615

 3  4  5  6  7  8  9  10  11  12  13  24  27  28  29  30  32 0
 6-311+G(2d,p)
 ****
 34  35 0
 6-311+G(2d,p)
 ****
 1  2  14  15  16  17  18  19  20  21  22  23  25  26 0
 3-21G
 ****
 31  33  36  37  38  39  40  41  42  43  44  45  46 0
 3-21G
 ****


