%nproc=1
%NoSave
%Mem=1900MB
#P OB98/GEN NMR

erre ene a

0 1
  C     -187.114     345.889     381.077
  O     -186.124     346.335     380.167
  H     -187.246     346.652     381.850
  H     -186.790     344.960     381.552
  H     -188.067     345.737     380.563
  P     -185.904     345.439     378.852
  C     -188.214     346.226     377.880
  O     -186.813     346.114     377.714
  C     -188.950     345.670     376.661
  O     -190.366     345.594     376.965
  C     -188.789     346.528     375.403
  O     -188.740     345.661     374.267
  C     -190.075     347.338     375.363
  O     -190.378     347.801     374.050
  C     -191.080     346.332     375.951
  N     -192.268     346.982     376.495
  C     -193.354     347.137     375.625
  O     -193.272     346.747     374.461
  N     -194.483     347.767     376.079
  C     -194.508     348.261     377.277
  N     -195.647     348.896     377.661
  C     -193.372     348.162     378.216
  C     -192.301     347.508     377.767
  O     -186.695     344.100     379.229
  O     -184.474     345.228     378.482
  H     -191.256     348.240     374.070
  H     -187.562     344.266     379.636
  H     -193.433     348.600     379.202
  H     -191.424     347.380     378.389
  H     -191.400     345.616     375.182
  H     -189.990     348.212     376.016
  H     -187.895     347.156     375.431
  H     -188.605     344.645     376.483
  H     -196.393     348.963     376.977
  H     -188.497     347.274     378.029
  H     -195.758     349.366     378.548
  H     -188.495     345.668     378.780
  P     -187.693     345.953     373.097
  C     -185.499     344.598     373.239
  O     -186.849     344.628     372.792
  O     -186.889     347.202     373.240
  O     -188.638     346.055     371.795
  H     -188.312     346.795     371.245
  H     -185.055     343.662     372.971
  H     -185.473     344.714     374.302
  H     -184.953     345.396     372.780

 6  7  8  9  10  11  12  13  14  15  16  26  30  31  32  33  35 0
 6-311+G(2d,p)
 ****
 37  38 0
 6-311+G(2d,p)
 ****
 1  2  3  4  5  17  18  19  20  21  22  23  24  25 0
 3-21G
 ****
 27  28  29  34  36  39  40  41  42  43  44  45  46 0
 3-21G
 ****


