%nproc=1
%NoSave
%Mem=1900MB
#P OB98/GEN NMR

erre ene a

0 1
  C     -108.243     -33.337     127.930
  O     -108.142     -33.836     126.596
  P     -106.738     -33.724     125.826
  C     -105.174     -35.694     126.356
  O     -106.202     -35.204     125.507
  C     -105.243     -37.216     126.542
  O     -106.584     -37.630     126.924
  C     -104.856     -38.025     125.296
  O     -104.178     -39.202     125.753
  C     -106.207     -38.377     124.705
  O     -106.134     -39.459     123.788
  C     -107.007     -38.640     125.985
  N     -108.443     -38.602     125.765
  C     -108.995     -39.609     124.971
  O     -108.260     -40.421     124.407
  N     -110.360     -39.649     124.814
  C     -111.085     -38.680     125.282
  N     -112.436     -38.766     125.125
  C     -110.516     -37.507     125.969
  C     -109.208     -37.546     126.196
  O     -105.734     -32.814     126.454
  O     -107.171     -33.187     124.376
  H     -107.035     -39.656     123.455
  H     -106.471     -32.593     124.039
  H     -111.152     -36.685     126.268
  H     -108.696     -36.737     126.697
  H     -106.743     -39.617     126.416
  H     -106.614     -37.508     124.172
  H     -104.202     -37.477     124.609
  H     -104.574     -37.484     127.373
  H     -112.810     -39.566     124.628
  H     -105.255     -35.209     127.334
  H     -113.072     -38.079     125.506
  H     -104.202     -35.392     125.949
  P     -102.573     -39.215     125.765
  C     -101.627     -38.683     128.128
  O     -102.096     -39.666     127.228
  O     -102.232     -37.644     125.774
  O     -101.909     -39.875     124.598
  H     -101.340     -37.512     125.395
  H     -101.617     -39.112     129.135
  H     -102.277     -37.805     128.134
  H     -100.608     -38.389     127.861
  H     -109.238     -33.489     128.293
  H     -108.016     -32.291     127.938
  H     -107.551     -33.857     128.559

 3  4  5  6  7  8  9  10  11  12  13  23  27  28  29  30  32 0
 6-311+G(2d,p)
 ****
 34  35 0
 6-311+G(2d,p)
 ****
 1  2  14  15  16  17  18  19  20  21  22  24  25  26 0
 3-21G
 ****
 31  33  36  37  38  39  40  41  42  43  44  45  46 0
 3-21G
 ****


