%nproc=1
%NoSave
%Mem=1900MB
#P OB98/GEN NMR

erre ene a

0 1
  C     -209.906    -369.719     -13.346
  O     -211.186    -369.227     -12.944
  P     -211.683    -367.856     -13.621
  C     -212.459    -367.120     -16.004
  O     -212.088    -368.190     -15.138
  C     -213.326    -367.622     -17.153
  O     -212.591    -368.536     -17.997
  C     -214.561    -368.402     -16.717
  O     -215.612    -367.534     -16.305
  C     -214.927    -369.126     -17.999
  O     -215.684    -368.255     -18.858
  C     -213.545    -369.424     -18.620
  N     -214.588    -374.322     -19.450
  C     -215.292    -373.190     -19.829
  N     -216.415    -373.394     -20.556
  N     -214.920    -371.969     -19.523
  C     -213.763    -371.920     -18.818
  C     -212.975    -372.968     -18.384
  C     -213.411    -374.315     -18.706
  O     -212.849    -375.349     -18.373
  N     -211.868    -372.521     -17.708
  C     -211.968    -371.198     -17.756
  N     -213.105    -370.790     -18.408
  O     -210.321    -367.022     -13.781
  O     -212.696    -367.115     -12.820
  H     -216.428    -367.892     -18.322
  H     -210.515    -366.067     -13.776
  H     -214.925    -375.235     -19.708
  H     -211.248    -370.510     -17.337
  H     -213.534    -369.223     -19.697
  H     -215.548    -370.016     -17.827
  H     -216.713    -374.300     -20.882
  H     -214.307    -369.136     -15.936
  H     -216.917    -372.568     -20.866
  H     -213.627    -366.755     -17.761
  H     -211.559    -366.644     -16.403
  H     -212.985    -366.355     -15.417
  P     -215.898    -367.415     -14.730
  C     -215.029    -365.699     -12.982
  O     -214.761    -366.433     -14.160
  O     -215.479    -368.858     -14.175
  O     -217.309    -367.064     -14.383
  H     -215.998    -369.074     -13.374
  H     -215.522    -366.319     -12.229
  H     -215.665    -364.836     -13.226
  H     -214.084    -365.337     -12.571
  H     -209.695    -370.630     -12.826
  H     -209.155    -368.993     -13.112
  H     -209.909    -369.902     -14.400

 3  4  5  6  7  8  9  10  11  12  23  26  30  31  33  0
 6-311+G(2d,p)
 ****
 35  36  37  38 0
 6-311+G(2d,p)
 ****
 1  2  13  14  15  16  17  18  19  20  21  22  24  25  27  28  29 0
 3-21G
 ****
 32  34  39  40  41  42  43  44  45  46  47  48  49 0
 3-21G
 ****


