%nproc=1
%NoSave
%Mem=1900MB
#P OB98/GEN NMR

erre ene a

0 1
  C      455.420    -116.660     806.480
  O      455.425    -116.443     807.874
  P      456.639    -116.965     808.776
  C      456.043    -115.320     810.654
  O      456.295    -116.682     810.311
  C      455.895    -115.166     812.172
  O      457.073    -115.639     812.852
  C      455.713    -113.726     812.630
  O      454.430    -113.225     812.325
  C      456.020    -113.866     814.119
  O      454.877    -114.352     814.833
  C      457.148    -114.918     814.112
  N      458.465    -114.333     814.319
  C      458.814    -114.084     815.645
  O      458.014    -114.284     816.556
  N      460.085    -113.608     815.908
  C      460.863    -113.288     814.921
  N      462.124    -112.873     815.232
  C      460.462    -113.382     813.501
  C      459.267    -113.930     813.276
  O      457.997    -116.511     808.341
  O      456.530    -118.560     808.684
  H      457.402    -118.926     808.448
  H      454.174    -113.677     814.727
  H      461.126    -113.046     812.724
  H      458.899    -114.066     812.264
  H      456.963    -115.669     814.889
  H      456.303    -112.908     814.576
  H      456.479    -113.094     812.158
  H      455.042    -115.779     812.493
  H      462.372    -112.834     816.220
  H      455.122    -114.992     810.161
  H      462.894    -112.917     814.575
  H      456.870    -114.696     810.280
  P      454.362    -111.873     811.456
  C      451.845    -112.308     811.003
  O      452.835    -111.396     811.439
  O      454.624    -112.391     809.961
  O      455.357    -110.830     811.850
  H      455.151    -111.731     809.476
  H      450.873    -111.970     811.371
  H      452.042    -113.316     811.385
  H      451.829    -112.327     809.910
  H      454.531    -116.240     806.057
  H      455.447    -117.711     806.283
  H      456.278    -116.193     806.043

 3  4  5  6  7  8  9  10  11  12  13  24  27  28  29  30  32 0
 6-311+G(2d,p)
 ****
 34  35 0
 6-311+G(2d,p)
 ****
 1  2  14  15  16  17  18  19  20  21  22  23  25  26 0
 3-21G
 ****
 31  33  36  37  38  39  40  41  42  43  44  45  46 0
 3-21G
 ****


