%nproc=1
%NoSave
%Mem=1900MB
#P OB98/GEN NMR

erre ene a

0 1
  C      561.763     247.881    -317.180
  O      561.193     248.552    -316.053
  P      561.237     247.840    -314.626
  C      558.713     247.417    -314.352
  O      559.854     248.113    -313.857
  C      557.473     247.733    -313.501
  O      557.684     247.304    -312.123
  C      557.148     249.231    -313.454
  O      555.725     249.432    -313.359
  C      557.773     249.678    -312.143
  O      557.191     250.902    -311.676
  C      557.498     248.450    -311.261
  N      558.718     250.605    -306.775
  C      557.737     250.890    -307.667
  N      557.462     250.257    -308.829
  C      558.317     249.234    -309.043
  C      559.351     248.819    -308.209
  C      559.554     249.571    -307.035
  N      560.568     249.300    -306.137
  N      560.010     247.726    -308.752
  C      559.407     247.515    -309.905
  N      558.359     248.367    -310.104
  O      562.462     248.104    -313.811
  O      561.128     246.281    -314.990
  H      557.839     251.335    -311.102
  H      561.753     245.770    -314.446
  H      557.095     251.724    -307.421
  H      559.701     246.766    -310.630
  H      556.451     248.436    -310.905
  H      558.844     249.837    -312.279
  H      557.537     249.799    -314.309
  H      556.619     247.163    -313.873
  H      558.909     246.339    -314.350
  H      560.705     249.963    -305.388
  H      561.279     248.634    -306.397
  H      558.556     247.689    -315.399
  P      555.001     249.948    -314.697
  C      553.708     251.924    -313.555
  O      553.650     250.679    -314.214
  O      554.834     248.883    -315.740
  O      555.962     251.154    -315.161
  H      556.170     251.798    -314.469
  H      552.697     252.302    -313.427
  H      554.288     252.642    -314.137
  H      554.163     251.800    -312.566
  H      561.651     248.490    -318.052
  H      561.262     246.948    -317.330
  H      562.803     247.703    -317.001

 3  4  5  6  7  8  9  10  11  12  22  25  29  30  31  32 0
 6-311+G(2d,p)
 ****
 33  36  37 0
 6-311+G(2d,p)
 ****
 1  2  13  14  15  16  17  18  19  20  21  23  24  26 0
 3-21G
 ****
 27  28  34  35  38  39  40  41  42  43  44  45  46  47  48 0
 3-21G
 ****


