%nproc=1
%NoSave
%Mem=1900MB
#P OB98/GEN NMR

erre ene a

0 1
  C      -29.449       7.502      14.387
  O      -30.407       6.828      15.182
  H      -28.730       6.770      14.011
  H      -28.916       8.242      14.989
  H      -29.938       7.987      13.540
  P      -31.574       7.732      15.814
  C      -29.889       8.745      17.498
  O      -30.802       8.992      16.437
  C      -29.049       9.987      17.781
  O      -28.318      10.382      16.607
  C      -29.858      11.210      18.196
  O      -30.199      11.148      19.571
  C      -28.857      12.320      17.914
  O      -27.903      12.401      18.991
  C      -28.161      11.826      16.633
  N      -27.354      12.329      11.589
  C      -26.570      11.853      12.580
  N      -26.833      11.789      13.902
  C      -28.051      12.285      14.171
  C      -28.962      12.805      13.264
  C      -28.577      12.808      11.914
  N      -29.384      13.285      10.904
  N      -30.109      13.220      13.907
  C      -29.915      12.907      15.172
  N      -28.670      12.372      15.389
  O      -32.524       7.023      16.715
  O      -32.228       8.353      14.489
  H      -28.382      12.703      19.785
  H      -31.539       8.570      13.837
  H      -25.602      11.470      12.270
  H      -30.645      13.031      15.963
  H      -27.086      12.039      16.649
  H      -29.334      13.300      17.837
  H      -30.735      11.347      17.556
  H      -28.312       9.725      18.551
  H      -29.236       7.902      17.251
  H      -28.967      13.408       9.994
  H      -30.240      13.753      11.162
  H      -30.478       8.478      18.382
  P      -31.553      11.818      20.108
  C      -30.201      14.003      20.146
  O      -31.437      13.390      19.802
  O      -31.907      11.485      21.515
  O      -32.677      11.332      19.081
  H      -33.511      11.146      19.554
  H      -30.238      15.043      19.899
  H      -29.407      13.535      19.602
  H      -30.028      13.891      21.196

 6  7  8  9  10  11  12  13  14  15  25  28  32  33  34  35 0
 6-311+G(2d,p)
 ****
 36  39  40 0
 6-311+G(2d,p)
 ****
 1  2  3  4  5  16  17  18  19  20  21  22  23  24 0
 3-21G
 ****
 26  27  29  30  31  37  38  41  42  43  44  45  46  47 0
 3-21G
 ****
 48 0
 3-21G
 ****


