%nproc=1
%NoSave
%Mem=1900MB
#P OB98/GEN NMR

erre ene a

0 1
  C       46.735    -824.838     195.472
  O       45.463    -824.231     195.412
  H       46.992    -825.215     194.476
  H       46.730    -825.678     196.172
  H       47.493    -824.108     195.773
  P       44.806    -823.698     196.772
  C       45.735    -821.290     196.626
  O       44.584    -822.117     196.586
  C       45.377    -819.845     196.244
  O       44.982    -819.805     194.841
  C       44.202    -819.264     197.057
  O       44.408    -817.848     197.159
  C       43.023    -819.574     196.149
  O       41.879    -818.850     196.530
  C       43.642    -819.267     194.783
  N       42.870    -819.831     193.688
  C       41.665    -819.188     193.383
  O       41.297    -818.215     194.041
  N       40.893    -819.691     192.364
  C       41.251    -820.768     191.748
  N       40.434    -821.218     190.763
  C       42.492    -821.513     192.079
  C       43.249    -820.985     193.041
  O       45.513    -824.089     198.030
  O       43.311    -824.280     196.737
  H       41.218    -818.827     195.795
  H       43.238    -825.029     197.353
  H       42.742    -822.416     191.547
  H       44.174    -821.455     193.359
  H       43.726    -818.182     194.625
  H       42.757    -820.634     196.215
  H       44.115    -819.700     198.060
  H       46.271    -819.219     196.340
  H       39.588    -820.687     190.575
  H       46.451    -821.692     195.902
  H       40.605    -822.066     190.235
  H       46.187    -821.305     197.618
  P       44.101    -817.007     198.489
  C       46.271    -815.676     198.937
  O       44.930    -815.634     198.453
  O       44.276    -817.791     199.754
  O       42.575    -816.531     198.338
  H       42.173    -816.465     199.221
  H       46.709    -814.703     198.859
  H       46.839    -816.371     198.354
  H       46.271    -815.986     199.961

 6  7  8  9  10  11  12  13  14  15  16  26  30  31  32  33  35 0
 6-311+G(2d,p)
 ****
 37  38 0
 6-311+G(2d,p)
 ****
 1  2  3  4  5  17  18  19  20  21  22  23  24  25 0
 3-21G
 ****
 27  28  29  34  36  39  40  41  42  43  44  45  46 0
 3-21G
 ****


