%nproc=1
%NoSave
%Mem=1900MB
#P OB98/GEN NMR

erre ene a

0 1
  C      110.233    -153.544     -68.534
  O      110.555    -154.809     -67.993
  H      109.857    -152.904     -67.730
  H      109.452    -153.647     -69.293
  H      111.116    -153.071     -68.973
  P      111.318    -155.875     -68.917
  C      109.244    -157.265     -69.568
  O      110.263    -156.377     -70.014
  C      108.971    -158.324     -70.635
  O      108.295    -157.728     -71.763
  C      110.229    -158.972     -71.202
  O      110.768    -159.912     -70.289
  C      109.681    -159.570     -72.492
  O      109.000    -160.805     -72.234
  C      108.687    -158.472     -72.942
  N      109.239    -157.578     -73.962
  C      108.938    -157.894     -75.284
  O      108.283    -158.884     -75.608
  N      109.436    -157.036     -76.229
  C      110.257    -155.971     -75.993
  O      110.721    -155.261     -76.883
  C      110.566    -155.707     -74.581
  C      110.053    -156.508     -73.646
  O      112.039    -156.966     -68.192
  O      112.327    -154.971     -69.776
  H      108.190    -160.579     -71.737
  H      113.224    -155.025     -69.392
  H      109.239    -157.256     -77.193
  H      111.220    -154.872     -74.354
  H      110.277    -156.332     -72.600
  H      107.774    -158.926     -73.341
  H      110.467    -159.787     -73.219
  H      110.973    -158.206     -71.457
  H      108.303    -159.079     -70.202
  H      108.329    -156.688     -69.383
  H      109.566    -157.733     -68.632
  P      112.342    -159.976     -70.013
  C      112.830    -161.772     -71.772
  O      113.056    -160.423     -71.379
  O      112.747    -160.765     -68.811
  O      112.772    -158.438     -69.865
  H      112.945    -158.233     -68.926
  H      113.346    -161.968     -72.689
  H      111.781    -161.932     -71.912
  H      113.193    -162.431     -71.011

 6  7  8  9  10  11  12  13  14  15  16  26  31  32  33  34  35 0
 6-311+G(2d,p)
 ****
 36  37 0
 6-311+G(2d,p)
 ****
 1  2  3  4  5  17  18  19  20  21  22  23  24  25 0
 3-21G
 ****
 27  28  29  30  38  39  40  41  42  43  44  45 0
 3-21G
 ****


