%nproc=1
%NoSave
%Mem=1900MB
#P OB98/GEN NMR

erre ene a

0 1
  C      -34.693    -497.657    -103.406
  O      -33.982    -498.651    -104.118
  H      -35.733    -497.628    -103.737
  H      -34.669    -497.902    -102.339
  H      -34.225    -496.679    -103.554
  P      -33.919    -498.475    -105.713
  C      -31.375    -498.015    -105.818
  O      -32.435    -498.893    -106.168
  C      -30.042    -498.752    -105.882
  O      -29.848    -499.445    -104.618
  C      -29.947    -499.790    -107.012
  O      -28.742    -499.608    -107.763
  C      -29.868    -501.124    -106.287
  O      -29.052    -502.074    -106.960
  C      -29.301    -500.731    -104.929
  N      -27.458    -504.521    -102.057
  C      -26.840    -503.510    -102.700
  N      -27.393    -502.474    -103.368
  C      -28.734    -502.533    -103.302
  C      -29.508    -503.488    -102.666
  C      -28.810    -504.535    -102.035
  N      -29.442    -505.602    -101.428
  N      -30.857    -503.221    -102.823
  C      -30.899    -502.147    -103.582
  N      -29.639    -501.702    -103.909
  O      -33.943    -496.883    -105.905
  O      -35.035    -499.133    -106.452
  H      -28.854    -502.789    -106.324
  H      -34.736    -496.641    -106.418
  H      -25.753    -503.532    -102.682
  H      -31.798    -501.676    -103.958
  H      -28.207    -500.634    -104.958
  H      -30.879    -501.538    -106.193
  H      -30.808    -499.754    -107.690
  H      -29.233    -498.015    -105.967
  H      -31.532    -497.638    -104.802
  H      -28.870    -506.363    -101.105
  H      -30.448    -505.675    -101.507
  H      -31.373    -497.165    -106.511
  P      -28.820    -498.567    -108.991
  C      -26.699    -497.182    -108.409
  O      -27.329    -498.078    -109.325
  O      -29.517    -497.282    -108.337
  O      -29.599    -499.074    -110.160
  H      -30.320    -497.050    -108.833
  H      -25.716    -496.945    -108.760
  H      -26.632    -497.645    -107.447
  H      -27.277    -496.284    -108.334

 6  7  8  9  10  11  12  13  14  15  25  28  32  33  34  35 0
 6-311+G(2d,p)
 ****
 36  39  40 0
 6-311+G(2d,p)
 ****
 1  2  3  4  5  16  17  18  19  20  21  22  23  24 0
 3-21G
 ****
 26  27  29  30  31  37  38  41  42  43  44  45  46  47  48 0
 3-21G
 ****


