%nproc=1
%NoSave
%Mem=1900MB
#P OB98/GEN NMR

erre ene a

0 1
  C     -208.118      12.648      75.959
  O     -208.884      13.659      76.589
  H     -207.978      11.824      76.657
  H     -207.139      13.043      75.671
  H     -208.638      12.276      75.066
  P     -209.284      14.928      75.699
  C     -208.852      16.312      77.854
  O     -209.694      16.095      76.726
  C     -209.411      17.428      78.734
  O     -209.457      18.665      77.968
  C     -210.840      17.168      79.259
  O     -210.931      17.726      80.577
  C     -211.696      18.001      78.331
  O     -212.971      18.318      78.892
  C     -210.784      19.210      78.118
  N     -213.929      22.818      76.561
  C     -213.740      22.271      77.823
  N     -214.506      22.764      78.819
  N     -212.869      21.334      78.075
  C     -212.147      20.969      76.991
  C     -212.238      21.416      75.699
  C     -213.227      22.438      75.425
  O     -213.456      22.951      74.327
  N     -211.348      20.762      74.873
  C     -210.724      19.917      75.681
  N     -211.171      20.003      76.966
  O     -210.686      14.484      75.056
  O     -208.291      15.323      74.651
  H     -213.529      18.715      78.177
  H     -210.541      14.081      74.180
  H     -214.624      23.531      76.428
  H     -209.949      19.225      75.364
  H     -210.778      19.885      78.980
  H     -211.868      17.467      77.386
  H     -215.167      23.528      78.708
  H     -211.120      16.113      79.287
  H     -214.350      22.413      79.758
  H     -208.712      17.593      79.569
  H     -207.854      16.602      77.497
  H     -208.770      15.383      78.427
  P     -210.921      16.715      81.829
  C     -212.201      18.478      83.271
  O     -211.093      17.590      83.177
  O     -209.383      16.256      81.903
  O     -211.840      15.550      81.691
  H     -209.327      15.368      82.293
  H     -212.176      18.981      84.215
  H     -213.112      17.922      83.187
  H     -212.149      19.198      82.482

 6  7  8  9  10  11  12  13  14  15  26  29  33  34 0
 6-311+G(2d,p)
 ****
 36  38  39  40  41 0
 6-311+G(2d,p)
 ****
 1  2  3  4  5  16  17  18  19  20  21  22  23  24  25 0
 3-21G
 ****
 27  28  30  31  32  35  37  42  43  44  45  46  47 0
 3-21G
 ****
 48  49 0
 3-21G
 ****


