%nproc=1
%NoSave
%Mem=1900MB
#P OB98/GEN NMR

erre ene a

0 1
  C     -666.748    -649.125     470.573
  O     -665.422    -648.965     471.048
  H     -666.772    -649.977     469.889
  H     -667.066    -648.227     470.033
  H     -667.425    -649.316     471.404
  P     -665.171    -647.767     472.093
  C     -663.231    -648.768     473.506
  O     -663.627    -647.839     472.503
  C     -661.747    -649.094     473.333
  O     -661.573    -650.052     472.261
  C     -660.883    -647.904     472.963
  O     -660.579    -647.081     474.066
  C     -659.658    -648.604     472.380
  O     -658.754    -649.018     473.403
  C     -660.268    -649.829     471.687
  N     -657.802    -650.362     467.251
  C     -657.462    -650.696     468.518
  N     -658.185    -650.534     469.641
  C     -659.378    -649.991     469.363
  C     -659.861    -649.588     468.131
  C     -659.015    -649.796     467.026
  N     -659.328    -649.430     465.735
  N     -661.117    -649.027     468.261
  C     -661.399    -649.077     469.545
  N     -660.377    -649.658     470.248
  O     -665.935    -648.258     473.405
  O     -665.656    -646.429     471.636
  H     -658.501    -648.196     473.889
  H     -666.808    -647.829     473.467
  H     -656.491    -651.165     468.633
  H     -662.301    -648.716     469.994
  H     -659.681    -650.751     471.856
  H     -659.117    -647.947     471.694
  H     -661.360    -647.331     472.163
  H     -661.387    -649.572     474.270
  H     -663.824    -649.677     473.416
  H     -663.420    -648.313     474.487
  H     -658.651    -649.551     465.014
  H     -660.192    -648.908     465.590
  P     -660.379    -645.517     473.790
  C     -660.000    -645.107     476.344
  O     -659.529    -644.919     475.014
  O     -661.832    -644.890     474.009
  O     -659.813    -645.195     472.444
  H     -661.967    -644.142     473.373
  H     -659.320    -644.649     477.031
  H     -660.068    -646.154     476.554
  H     -660.966    -644.659     476.447

 6  7  8  9  10  11  12  13  14  15  25  28  32  33  34  35 0
 6-311+G(2d,p)
 ****
 36  37  40 0
 6-311+G(2d,p)
 ****
 1  2  3  4  5  16  17  18  19  20  21  22  23  24 0
 3-21G
 ****
 26  27  29  30  31  38  39 41  42  43  44  45  46  47  48 0
 3-21G
 ****


