%nproc=1
%NoSave
%Mem=1900MB
#P OB98/GEN NMR

erre ene a

0 1
  C      596.821     279.537     544.365
  O      596.960     278.736     543.208
  H      596.186     279.011     545.083
  H      596.345     280.492     544.110
  H      597.797     279.716     544.825
  P      597.815     279.304     541.976
  C      595.656     279.296     540.555
  O      596.769     280.056     541.018
  C      595.702     279.165     539.031
  O      594.610     278.350     538.564
  C      595.593     280.495     538.283
  O      596.858     281.149     538.244
  C      595.150     280.008     536.916
  O      596.274     279.454     536.205
  C      594.155     278.885     537.284
  N      589.368     278.045     535.824
  C      590.548     277.499     535.361
  N      590.435     276.618     534.332
  N      591.724     277.788     535.837
  C      591.696     278.733     536.810
  C      590.587     279.368     537.343
  C      589.284     278.983     536.851
  O      588.211     279.430     537.249
  N      590.958     280.332     538.242
  C      592.270     280.253     538.297
  N      592.771     279.301     537.436
  O      598.689     278.317     541.263
  O      598.659     280.507     542.606
  H      596.526     278.631     536.663
  H      599.535     280.203     542.915
  H      588.489     277.791     535.414
  H      592.907     280.841     538.938
  H      594.172     278.067     536.570
  H      594.734     280.809     536.296
  H      589.574     276.468     533.828
  H      594.817     281.141     538.704
  H      591.296     276.252     533.939
  H      596.635     278.641     538.771
  H      594.749     279.824     540.864
  H      595.654     278.301     541.012
  P      597.002     282.716     538.580
  C      596.334     283.400     536.171
  O      596.022     283.460     537.552
  O      598.408     283.218     538.593
  O      596.228     282.892     539.965
  H      596.801     282.691     540.761
  H      595.595     283.938     535.615
  H      596.347     282.379     535.852
  H      597.296     283.838     536.003

 6  7  8  9  10  11  12  13  14  15  26  29  33  34 0
 6-311+G(2d,p)
 ****
 36  38  39  40  41 0
 6-311+G(2d,p)
 ****
 1  2  3  4  5  16  17  18  19  20  21  22  23  24  25 0
 3-21G
 ****
 27  28  30  31  32  35  37  42  43  44  45  46  47 0
 3-21G
 ****
 48  49 0
 3-21G
 ****


