%nproc=1
%NoSave
%Mem=1900MB
#P OB98/GEN NMR

erre ene a

0 1
  C      392.637     -69.550    -204.265
  O      392.945     -70.900    -204.550
  H      393.501     -69.085    -203.781
  H      391.780     -69.494    -203.586
  H      392.415     -69.004    -205.187
  P      391.851     -71.736    -205.370
  C      389.802     -71.062    -203.905
  O      390.450     -70.973    -205.164
  C      388.396     -70.473    -204.000
  O      387.708     -70.708    -202.741
  C      388.388     -68.956    -204.249
  O      387.295     -68.626    -205.106
  C      388.148     -68.377    -202.861
  O      387.588     -67.071    -202.873
  C      387.218     -69.440    -202.260
  N      387.198     -69.409    -200.801
  C      386.055     -68.916    -200.187
  O      385.029     -68.572    -200.776
  N      386.112     -68.818    -198.818
  C      387.183     -69.140    -198.034
  O      387.185     -69.009    -196.812
  C      388.365     -69.642    -198.745
  C      388.322     -69.753    -200.074
  O      391.668     -73.068    -204.492
  O      392.188     -72.032    -206.791
  H      392.294     -73.759    -204.790
  H      386.776     -67.099    -203.423
  H      385.290     -68.465    -198.351
  H      389.236     -69.897    -198.152
  H      389.180     -70.113    -200.627
  H      386.199     -69.312    -202.649
  H      389.090     -68.336    -202.304
  H      389.323     -68.592    -204.682
  H      387.835     -71.002    -204.783
  H      390.383     -70.501    -203.163
  H      389.752     -72.115    -203.597
  P      387.647     -68.099    -206.583
  C      387.009     -65.584    -206.236
  O      388.037     -66.548    -206.415
  O      386.204     -68.075    -207.266
  O      388.668     -68.947    -207.276
  H      385.491     -67.808    -206.660
  H      387.445     -64.611    -206.142
  H      386.455     -65.814    -205.350
  H      386.353     -65.601    -207.081

 6  7  8  9  10  11  12  13  14  15  16  27  31  32  33  34  35 0
 6-311+G(2d,p)
 ****
 36  37 0
 6-311+G(2d,p)
 ****
 1  2  3  4  5  17  18  19  20  21  22  23  24  25 0
 3-21G
 ****
 26  28  29  30  38  39  40  41  42  43  44  45 0
 3-21G
 ****


