%nproc=1
%NoSave
%Mem=1900MB
#P OB98/GEN NMR

erre ene a

0 1
  C      130.410    -159.049      25.121
  O      131.691    -158.420      25.147
  P      132.991    -159.283      24.769
  C      133.470    -160.372      27.046
  O      133.040    -160.586      25.709
  C      134.293    -161.551      27.589
  O      133.451    -162.719      27.793
  C      135.456    -161.982      26.685
  O      136.526    -162.390      27.545
  C      134.872    -163.170      25.950
  O      135.871    -163.992      25.366
  C      134.052    -163.812      27.072
  N      133.051    -164.742      26.573
  C      133.284    -166.102      26.784
  O      134.346    -166.477      27.279
  N      132.315    -167.001      26.399
  C      131.285    -166.584      25.726
  N      130.344    -167.501      25.383
  C      131.101    -165.176      25.329
  C      131.997    -164.317      25.803
  O      134.268    -158.516      24.688
  O      132.603    -159.898      23.339
  H      136.586    -164.138      26.021
  H      133.411    -159.959      22.790
  H      130.270    -164.888      24.701
  H      131.946    -163.262      25.573
  H      134.704    -164.345      27.776
  H      134.211    -162.820      25.146
  H      135.812    -161.182      26.024
  H      134.685    -161.260      28.574
  H      130.496    -168.466      25.641
  H      132.596    -160.221      27.684
  H      129.487    -167.246      24.905
  H      134.045    -159.438      27.093
  P      137.722    -161.360      27.840
  C      139.530    -162.809      26.660
  O      138.846    -161.575      26.720
  O      138.410    -162.026      29.133
  O      137.319    -159.955      28.143
  H      138.876    -161.329      29.634
  H      140.035    -162.882      25.693
  H      138.839    -163.651      26.752
  H      140.280    -162.857      27.456
  H      129.658    -158.339      25.396
  H      130.400    -159.866      25.812
  H      130.212    -159.414      24.135

 3  4  5  6  7  8  9  10  11  12  13  23  27  28  29  30  32 0
 6-311+G(2d,p)
 ****
 34  35 0
 6-311+G(2d,p)
 ****
 1  2  14  15  16  17  18  19  20  21  22  24  25  26 0
 3-21G
 ****
 31  33  36  37  38  39  40  41  42  43  44  45  46 0
 3-21G
 ****


