%nproc=1
%NoSave
%Mem=1900MB
#P OB98/GEN NMR

erre ene a

0 1
  C       94.932    -103.119      65.517
  O       95.549    -101.865      65.734
  H       95.488    -103.881      66.072
  H       94.941    -103.380      64.456
  H       93.902    -103.099      65.887
  P       95.094    -100.628      64.814
  C       97.024    -101.058      63.155
  O       95.610    -100.989      63.334
  C       97.382    -101.747      61.838
  O       96.774    -103.053      61.761
  C       96.890    -101.015      60.599
  O       97.508     -99.770      60.364
  C       96.979    -102.102      59.537
  O       98.298    -102.237      59.006
  C       96.608    -103.360      60.358
  N       95.256    -103.832      60.068
  C       95.163    -104.890      59.171
  O       96.137    -105.406      58.619
  N       93.894    -105.326      58.894
  C       92.738    -104.790      59.382
  O       91.629    -105.214      59.078
  C       92.899    -103.645      60.296
  C       94.133    -103.227      60.595
  O       95.521     -99.272      65.292
  O       93.508    -100.801      64.696
  H       98.216    -102.725      58.164
  H       93.081     -99.972      64.362
  H       93.804    -106.104      58.257
  H       92.004    -103.185      60.690
  H       94.277    -102.387      61.271
  H       97.306    -104.180      60.136
  H       96.309    -101.911      58.697
  H       95.820    -100.796      60.729
  H       98.470    -101.884      61.811
  H       97.439    -101.636      63.988
  H       97.445    -100.047      63.179
  P       96.842     -98.598      59.508
  C       98.410     -98.822      57.426
  O       97.090     -98.898      57.951
  O       97.064     -97.203      60.000
  O       95.269     -98.928      59.669
  H       94.795     -98.070      59.679
  H       98.392     -99.050      56.381
  H       99.037     -99.525      57.933
  H       98.794     -97.834      57.569

 6  7  8  9  10  11  12  13  14  15  16  26  31  32  33  34  35 0
 6-311+G(2d,p)
 ****
 36  37 0
 6-311+G(2d,p)
 ****
 1  2  3  4  5  17  18  19  20  21  22  23  24  25 0
 3-21G
 ****
 27  28  29  30  38  39  40  41  42  43  44  45 0
 3-21G
 ****


