%nproc=1
%NoSave
%Mem=1900MB
#P OB98/GEN NMR

erre ene a

0 1
  C     -329.537    -251.528     115.586
  O     -330.164    -252.764     115.251
  P     -331.718    -252.955     115.598
  C     -333.431    -254.922     115.154
  O     -332.128    -254.497     115.460
  C     -333.484    -256.464     115.180
  O     -332.653    -257.009     114.124
  C     -332.983    -257.062     116.494
  O     -334.014    -257.145     117.464
  C     -332.464    -258.418     116.046
  O     -333.556    -259.333     115.843
  C     -331.807    -258.055     114.689
  N     -330.412    -257.565     114.691
  C     -329.384    -258.423     115.092
  O     -329.548    -259.586     115.444
  N     -328.112    -257.892     115.051
  C     -327.748    -256.691     114.512
  O     -326.598    -256.292     114.449
  C     -328.861    -255.885     113.978
  C     -330.112    -256.345     114.097
  O     -332.472    -252.240     114.384
  O     -332.127    -252.379     116.927
  H     -333.167    -260.225     115.710
  H     -332.979    -251.468     114.703
  H     -327.363    -258.479     115.396
  H     -328.612    -254.948     113.492
  H     -330.941    -255.757     113.701
  H     -331.846    -258.905     114.003
  H     -331.827    -258.869     116.805
  H     -332.135    -256.482     116.874
  H     -334.523    -256.777     114.995
  H     -333.745    -254.558     114.171
  H     -334.141    -254.507     115.883
  P     -334.082    -256.059     118.643
  C     -335.963    -255.457     120.281
  O     -335.346    -256.490     119.550
  O     -334.052    -254.628     118.232
  O     -332.840    -256.439     119.592
  H     -332.052    -255.884     119.378
  H     -336.900    -255.848     120.719
  H     -336.212    -254.609     119.631
  H     -335.309    -255.122     121.086
  H     -328.509    -251.559     115.292
  H     -329.601    -251.370     116.642
  H     -330.030    -250.728     115.075

 3  4  5  6  7  8  9  10  11  12  13  23  28  29  30  31  32 0
 6-311+G(2d,p)
 ****
 33  34 0
 6-311+G(2d,p)
 ****
 1  2  14  15  16  17  18  19  20  21  22  24  25  26  27 0
 3-21G
 ****
 35  36  37  38  39  40  41  42  43  44  45 0
 3-21G
 ****


