%nproc=1
%NoSave
%Mem=1900MB
#P OB98/GEN NMR

erre ene a

0 1
  C      -41.767    -289.204      -0.872
  O      -40.993    -288.300      -0.102
  P      -39.389    -288.418      -0.077
  C      -39.097    -290.846      -0.869
  O      -39.056    -289.956       0.239
  C      -37.865    -291.756      -0.884
  O      -38.024    -292.746      -1.928
  C      -36.568    -291.010      -1.148
  O      -35.518    -291.613      -0.382
  C      -36.280    -291.263      -2.621
  O      -34.878    -291.167      -2.905
  C      -36.887    -292.655      -2.812
  N      -36.656    -295.791      -6.870
  C      -36.110    -295.882      -5.636
  N      -36.193    -294.998      -4.616
  C      -36.977    -293.962      -4.951
  C      -37.599    -293.735      -6.171
  C      -37.415    -294.709      -7.164
  N      -37.978    -294.627      -8.420
  N      -38.296    -292.541      -6.153
  C      -38.111    -292.064      -4.940
  N      -37.329    -292.894      -4.173
  O      -38.698    -287.441       0.805
  O      -38.952    -288.258      -1.606
  H      -34.784    -291.077      -3.881
  H      -38.122    -287.739      -1.669
  H      -35.532    -296.783      -5.445
  H      -38.505    -291.129      -4.572
  H      -36.178    -293.450      -2.529
  H      -36.801    -290.510      -3.226
  H      -36.630    -289.940      -0.914
  H      -37.819    -292.296       0.076
  H      -39.119    -290.258      -1.789
  H      -37.891    -295.428      -9.025
  H      -38.679    -293.912      -8.580
  H      -40.018    -291.446      -0.820
  P      -34.443    -290.599       0.264
  C      -32.755    -291.509      -1.500
  O      -33.020    -291.203      -0.144
  O      -34.694    -290.375       1.724
  O      -34.642    -289.305      -0.660
  H      -34.998    -289.549      -1.544
  H      -31.748    -291.942      -1.570
  H      -32.785    -290.600      -2.105
  H      -33.484    -292.234      -1.878
  H      -42.805    -288.968      -0.762
  H      -41.591    -290.203      -0.533
  H      -41.490    -289.123      -1.902

 3  4  5  6  7  8  9  10  11  12  22  25  29  30  31  32 0
 6-311+G(2d,p)
 ****
 33  36  37 0
 6-311+G(2d,p)
 ****
 1  2  13  14  15  16  17  18  19  20  21  23  24  26 0
 3-21G
 ****
 27  28  34  35  38  39  40  41  42  43  44  45  46  47  48 0
 3-21G
 ****


