%nproc=1
%NoSave
%Mem=1900MB
#P OB98/GEN NMR

erre ene a

0 1
  C      179.791      67.730    -648.754
  O      179.294      67.587    -650.074
  P      177.983      68.421    -650.478
  C      177.098      66.502    -652.006
  O      176.854      67.361    -650.899
  C      176.227      65.250    -651.887
  O      176.626      64.460    -650.738
  C      174.745      65.546    -651.681
  O      174.114      65.905    -652.902
  C      174.244      64.234    -651.097
  O      173.959      63.284    -652.128
  C      175.449      63.784    -650.244
  N      175.252      64.004    -648.819
  C      174.648      62.960    -648.118
  O      174.274      61.918    -648.660
  N      174.450      63.169    -646.781
  C      174.729      64.320    -646.100
  O      174.474      64.479    -644.910
  C      175.337      65.406    -646.893
  C      175.565      65.201    -648.203
  O      178.383      69.128    -651.860
  O      177.542      69.410    -649.447
  H      173.731      62.442    -651.691
  H      177.968      70.011    -651.907
  H      174.036      62.421    -646.250
  H      175.579      66.334    -646.382
  H      175.994      65.992    -648.802
  H      175.634      62.711    -650.399
  H      173.321      64.369    -650.521
  H      174.626      66.346    -650.934
  H      176.374      64.634    -652.784
  H      178.157      66.220    -652.020
  H      176.874      67.036    -652.934
  P      172.620      66.486    -652.810
  C      172.657      66.639    -655.417
  O      171.979      66.210    -654.255
  O      172.916      68.057    -652.775
  O      171.865      65.963    -651.632
  H      173.707      68.299    -653.290
  H      173.742      66.549    -655.317
  H      172.392      67.670    -655.634
  H      172.334      66.010    -656.257
  H      180.661      67.119    -648.632
  H      179.040      67.425    -648.055
  H      180.047      68.754    -648.578

 3  4  5  6  7  8  9  10  11  12  13  23  28  29  30  31  32 0
 6-311+G(2d,p)
 ****
 33  34 0
 6-311+G(2d,p)
 ****
 1  2  14  15  16  17  18  19  20  21  22  24  25  26 0
 3-21G
 ****
 27  35  36  37  38  39  40  41  42  43  44  45 0
 3-21G
 ****


