%nproc=1
%NoSave
%Mem=1900MB
#P OB98/GEN NMR

erre ene a

0 1
  C      -33.839     -38.086     -58.111
  O      -33.109     -38.485     -59.276
  P      -31.588     -38.035     -59.517
  C      -30.230     -36.054     -60.427
  O      -31.534     -36.578     -60.196
  C      -30.238     -34.742     -61.224
  O      -30.435     -34.995     -62.642
  C      -31.318     -33.736     -60.804
  O      -30.766     -32.441     -61.047
  C      -32.434     -34.036     -61.790
  O      -33.382     -32.985     -61.909
  C      -31.623     -34.296     -63.056
  N      -35.579     -34.280     -66.306
  C      -34.990     -33.288     -65.607
  N      -33.919     -33.363     -64.792
  C      -33.422     -34.610     -64.765
  C      -33.910     -35.721     -65.433
  C      -35.053     -35.525     -66.228
  N      -35.687     -36.541     -66.907
  N      -33.157     -36.841     -65.138
  C      -32.238     -36.410     -64.297
  N      -32.353     -35.069     -64.043
  O      -30.748     -39.058     -60.212
  O      -31.018     -37.773     -58.043
  H      -32.970     -32.258     -62.410
  H      -30.138     -38.190     -57.962
  H      -35.443     -32.306     -65.708
  H      -31.482     -37.026     -63.826
  H      -31.310     -33.357     -63.528
  H      -32.972     -34.933     -61.462
  H      -31.629     -33.841     -59.762
  H      -29.243     -34.292     -61.126
  H      -29.645     -36.804     -60.971
  H      -36.552     -36.320     -67.374
  H      -35.386     -37.493     -66.758
  H      -29.742     -35.891     -59.459
  P      -30.964     -31.233     -60.014
  C      -32.558     -29.249     -59.766
  O      -32.266     -30.431     -60.488
  O      -29.753     -30.388     -59.797
  O      -31.438     -31.938     -58.656
  H      -31.291     -31.332     -57.906
  H      -33.000     -29.508     -58.800
  H      -33.274     -28.652     -60.337
  H      -31.653     -28.655     -59.604
  H      -34.827     -38.494     -58.152
  H      -33.896     -37.018     -58.074
  H      -33.340     -38.447     -57.236

 3  4  5  6  7  8  9  10  11  12  22  25  29  30  31  32 0
 6-311+G(2d,p)
 ****
 33  36  37 0
 6-311+G(2d,p)
 ****
 1  2  13  14  15  16  17  18  19  20  21  23  24  26 0
 3-21G
 ****
 27  28  34  35  38  39  40  41  42  43  44  45  46  47  48 0
 3-21G
 ****


