%nproc=1
%NoSave
%Mem=1900MB
#P OB98/GEN NMR

erre ene a

0 1
  C       49.906    -163.629    1139.055
  O       49.110    -162.835    1138.201
  H       50.759    -164.006    1138.483
  H       49.331    -164.474    1139.435
  H       50.281    -163.027    1139.893
  P       47.895    -162.032    1138.879
  C       46.843    -159.654    1138.507
  O       47.955    -160.523    1138.325
  C       47.296    -158.202    1138.346
  O       47.969    -157.733    1139.536
  C       48.300    -157.975    1137.237
  O       47.738    -158.101    1135.947
  C       48.781    -156.572    1137.575
  O       47.841    -155.586    1137.123
  C       48.817    -156.631    1139.124
  N       50.183    -156.757    1139.648
  C       51.042    -155.682    1139.395
  O       50.650    -154.701    1138.777
  N       52.340    -155.759    1139.816
  C       52.748    -156.817    1140.467
  N       54.043    -156.846    1140.867
  C       51.865    -157.962    1140.780
  C       50.613    -157.872    1140.343
  O       48.381    -161.872    1140.393
  O       46.547    -162.667    1138.720
  H       48.252    -154.708    1137.315
  H       49.263    -161.483    1140.473
  H       52.239    -158.821    1141.332
  H       49.900    -158.679    1140.523
  H       48.381    -155.710    1139.553
  H       49.736    -156.343    1137.102
  H       49.152    -158.660    1137.364
  H       46.396    -157.578    1138.206
  H       54.618    -156.054    1140.609
  H       46.382    -159.808    1139.484
  H       54.483    -157.624    1141.349
  H       46.102    -159.901    1137.741
  P       48.536    -157.608    1134.654
  C       48.844    -158.479    1132.251
  O       48.064    -158.538    1133.442
  O       50.018    -157.505    1134.818
  O       47.834    -156.204    1134.306
  H       46.894    -156.263    1134.108
  H       48.430    -159.141    1131.520
  H       49.850    -158.772    1132.468
  H       48.838    -157.479    1131.870

 6  7  8  9  10  11  12  13  14  15  16  26  30  31  32  33  35 0
 6-311+G(2d,p)
 ****
 37  38 0
 6-311+G(2d,p)
 ****
 1  2  3  4  5  17  18  19  20  21  22  23  24  25 0
 3-21G
 ****
 27  28  29  34  36  39  40  41  42  43  44  45  46 0
 3-21G
 ****


