%nproc=1
%NoSave
%Mem=1900MB
#P OB98/GEN NMR

erre ene a

0 1
  C      234.788     548.809     -11.240
  O      233.703     549.462     -11.872
  P      232.742     548.678     -12.895
  C      231.212     548.434     -10.822
  O      231.289     548.727     -12.218
  C      229.742     548.327     -10.406
  O      229.099     549.614     -10.548
  C      228.910     547.360     -11.242
  O      229.182     546.013     -10.888
  C      227.506     547.847     -10.942
  O      227.059     547.345      -9.665
  C      227.709     549.375     -10.852
  N      227.318     550.069     -12.077
  C      225.945     550.185     -12.319
  O      225.123     549.713     -11.532
  N      225.530     550.839     -13.448
  C      226.404     551.333     -14.274
  N      225.936     552.042     -15.342
  C      227.855     551.200     -14.085
  C      228.250     550.561     -12.974
  O      233.209     547.311     -13.268
  O      232.584     549.665     -14.138
  H      226.930     546.380      -9.762
  H      233.284     549.555     -14.827
  H      228.542     551.608     -14.811
  H      229.289     550.427     -12.752
  H      227.141     549.788     -10.012
  H      226.762     547.541     -11.686
  H      229.129     547.493     -12.313
  H      229.712     548.033      -9.344
  H      224.945     552.261     -15.331
  H      231.684     549.247     -10.268
  H      226.525     552.673     -15.851
  H      231.747     547.508     -10.619
  P      229.059     544.896     -12.034
  C      231.366     545.539     -13.003
  O      230.562     544.515     -12.449
  O      228.483     545.717     -13.282
  O      228.187     543.738     -11.674
  H      227.522     545.570     -13.378
  H      232.402     545.193     -13.013
  H      231.313     546.458     -12.397
  H      231.062     545.749     -14.027
  H      235.298     549.501     -10.603
  H      235.465     548.442     -11.983
  H      234.421     547.991     -10.656

 3  4  5  6  7  8  9  10  11  12  13  23  27  28  29  30  32 0
 6-311+G(2d,p)
 ****
 34  35 0
 6-311+G(2d,p)
 ****
 1  2  14  15  16  17  18  19  20  21  22  24  25  26 0
 3-21G
 ****
 31  33  36  37  38  39  40  41  42  43  44  45  46 0
 3-21G
 ****


