%nproc=1
%NoSave
%Mem=1900MB
#P OB98/GEN NMR

erre ene a

0 1
  C      284.314     -32.214     460.512
  O      283.175     -31.769     459.768
  P      283.416     -31.346     458.237
  C      282.425     -33.463     457.057
  O      283.576     -32.723     457.432
  C      282.542     -33.911     455.600
  O      282.596     -32.764     454.717
  C      283.797     -34.714     455.295
  O      283.702     -36.036     455.799
  C      283.845     -34.610     453.777
  O      282.942     -35.558     453.183
  C      283.328     -33.174     453.538
  N      284.392     -32.232     453.216
  C      284.505     -31.880     451.873
  O      283.779     -32.342     450.995
  N      285.498     -30.991     451.572
  C      286.389     -30.453     452.454
  O      287.251     -29.651     452.126
  C      286.253     -30.900     453.849
  C      285.274     -31.755     454.164
  O      284.898     -30.752     458.310
  O      282.378     -30.405     457.721
  H      285.465     -31.219     458.949
  H      283.439     -36.397     453.102
  H      285.589     -30.714     450.607
  H      286.958     -30.513     454.574
  H      285.159     -32.098     455.187
  H      282.605     -33.165     452.712
  H      284.841     -34.810     453.374
  H      284.672     -34.216     455.726
  H      281.648     -34.496     455.350
  H      281.530     -32.845     457.171
  H      282.323     -34.322     457.729
  P      284.449     -36.337     457.191
  C      282.034     -36.936     457.997
  O      283.307     -36.415     458.311
  O      285.168     -34.935     457.466
  O      285.376     -37.505     457.133
  H      284.592     -34.173     457.298
  H      281.533     -37.225     458.923
  H      282.110     -37.813     457.349
  H      281.437     -36.165     457.501
  H      284.014     -32.462     461.509
  H      285.046     -31.434     460.543
  H      284.733     -33.078     460.040

 3  4  5  6  7  8  9  10  11  12  13  24  28  29  30  31  32 0
 6-311+G(2d,p)
 ****
 33  34 0
 6-311+G(2d,p)
 ****
 1  2  14  15  16  17  18  19  20  21  22  23  25  26  27 0
 3-21G
 ****
 35  36  37  38  39  40  41  42  43  44  45 0
 3-21G
 ****


