%nproc=1
%NoSave
%Mem=1900MB
#P OB98/GEN NMR

erre ene a

0 1
  C     -865.724    -625.609     -33.153
  O     -865.795    -626.986     -33.402
  H     -866.239    -625.075     -33.955
  H     -864.682    -625.279     -33.125
  H     -866.215    -625.366     -32.200
  P     -865.112    -627.962     -32.309
  C     -867.247    -627.982     -30.818
  O     -865.853    -627.675     -30.921
  C     -867.434    -629.268     -30.020
  O     -866.912    -629.101     -28.679
  C     -868.888    -629.678     -29.841
  O     -869.436    -630.294     -31.010
  C     -868.799    -630.607     -28.650
  O     -868.407    -631.930     -29.043
  C     -867.670    -629.962     -27.812
  N     -869.686    -630.327     -23.134
  C     -869.163    -631.255     -23.984
  N     -868.641    -631.068     -25.203
  C     -868.648    -629.766     -25.520
  C     -869.128    -628.699     -24.763
  C     -869.662    -629.023     -23.515
  N     -870.207    -628.086     -22.670
  N     -868.997    -627.526     -25.464
  C     -868.434    -627.851     -26.596
  N     -868.209    -629.201     -26.692
  O     -863.660    -627.301     -32.120
  O     -865.025    -629.399     -32.709
  H     -868.485    -632.484     -28.242
  H     -863.005    -627.801     -32.627
  H     -869.205    -632.278     -23.604
  H     -868.190    -627.163     -27.402
  H     -866.980    -630.703     -27.395
  H     -869.747    -630.675     -28.118
  H     -869.498    -628.792     -29.559
  H     -866.861    -630.063     -30.516
  H     -867.662    -628.105     -31.836
  H     -867.751    -627.137     -30.334
  H     -870.632    -628.395     -21.815
  H     -870.298    -627.132     -23.003
  P     -871.014    -630.604     -31.030
  C     -871.738    -629.273     -33.159
  O     -871.714    -629.343     -31.737
  O     -871.456    -630.442     -29.498
  O     -871.375    -631.925     -31.580
  H     -872.164    -631.085     -29.292
  H     -872.237    -628.377     -33.464
  H     -872.259    -630.122     -33.549
  H     -870.735    -629.267     -33.533

 6  7  8  9  10  11  12  13  14  15  25  28  32  33  34  35 0
 6-311+G(2d,p)
 ****
 36  37  40 0
 6-311+G(2d,p)
 ****
 1  2  3  4  5  16  17  18  19  20  21  22  23  24 0
 3-21G
 ****
 26  27  29  30  31  38  39 41  42  43  44  45  46  47  48 0
 3-21G
 ****


