%nproc=1
%NoSave
%Mem=1900MB
#P OB98/GEN NMR

erre ene a

0 1
  C      802.685     625.089    -271.668
  O      802.958     626.474    -271.409
  P      801.840     627.618    -271.498
  C      803.152     629.425    -272.789
  O      802.553     629.053    -271.553
  C      803.975     630.715    -272.653
  O      805.341     630.401    -272.351
  C      804.029     631.573    -273.913
  O      802.812     632.282    -274.089
  C      805.243     632.460    -273.614
  O      804.890     633.558    -272.774
  C      806.172     631.459    -272.885
  N      807.224     630.948    -273.740
  C      808.465     631.612    -273.684
  O      808.580     632.625    -272.981
  N      809.500     631.148    -274.441
  C      809.310     630.138    -275.244
  N      810.387     629.713    -275.964
  C      808.011     629.461    -275.393
  C      807.030     629.910    -274.625
  O      800.774     627.511    -270.455
  O      801.206     627.464    -272.963
  H      805.720     633.997    -272.526
  H      800.273     627.737    -272.933
  H      807.896     628.653    -276.093
  H      806.040     629.474    -274.673
  H      806.625     631.950    -272.012
  H      805.683     632.867    -274.537
  H      804.234     630.950    -274.787
  H      803.567     631.286    -271.818
  H      811.267     630.192    -275.827
  H      802.349     629.586    -273.526
  H      810.347     628.943    -276.610
  H      803.782     628.604    -273.140
  P      802.156     632.401    -275.546
  C      800.842     634.605    -275.439
  O      800.771     633.184    -275.398
  O      802.089     631.127    -276.327
  O      803.090     633.476    -276.300
  H      803.114     633.261    -277.249
  H      799.856     634.989    -275.729
  H      801.585     634.937    -276.165
  H      801.097     634.978    -274.447
  H      803.583     624.520    -271.547
  H      802.325     624.978    -272.669
  H      801.944     624.737    -270.981

 3  4  5  6  7  8  9  10  11  12  13  23  27  28  29  30  32 0
 6-311+G(2d,p)
 ****
 34  35 0
 6-311+G(2d,p)
 ****
 1  2  14  15  16  17  18  19  20  21  22  24  25  26 0
 3-21G
 ****
 31  33  36  37  38  39  40  41  42  43  44  45  46 0
 3-21G
 ****


