%nproc=1
%NoSave
%Mem=1900MB
#P OB98/GEN NMR

erre ene a

0 1
  C      506.122     274.410     655.650
  O      506.450     274.001     656.965
  H      505.520     273.630     655.180
  H      507.032     274.559     655.061
  H      505.542     275.340     655.684
  P      507.430     274.968     657.794
  C      509.444     273.636     656.806
  O      508.814     274.893     656.965
  C      510.942     273.826     656.520
  O      511.137     274.303     655.178
  C      511.622     274.859     657.421
  O      511.911     274.370     658.714
  C      512.881     275.104     656.614
  O      513.784     273.987     656.761
  C      512.301     275.170     655.179
  N      511.943     276.535     654.784
  C      512.985     277.366     654.381
  O      514.157     276.973     654.394
  N      512.705     278.671     654.024
  C      511.467     279.094     654.028
  N      511.244     280.384     653.672
  C      510.336     278.236     654.425
  C      510.640     276.984     654.787
  O      507.771     274.112     659.109
  O      506.930     276.342     658.057
  H      514.574     274.204     656.238
  H      508.487     274.556     659.619
  H      509.324     278.635     654.429
  H      509.855     276.302     655.075
  H      513.023     274.776     654.451
  H      513.430     275.995     656.923
  H      511.047     275.790     657.475
  H      511.424     272.840     656.595
  H      512.060     280.958     653.459
  H      508.967     273.117     655.955
  H      510.357     280.834     653.792
  H      509.325     273.019     657.715
  P      511.849     275.409     659.932
  C      514.337     276.202     659.857
  O      512.959     276.532     659.650
  O      512.457     274.585     661.166
  O      510.482     275.937     660.235
  H      512.029     274.842     661.999
  H      514.946     277.051     659.627
  H      514.608     275.386     659.220
  H      514.487     275.922     660.879

 6  7  8  9  10  11  12  13  14  15  16  26  30  31  32  33  35 0
 6-311+G(2d,p)
 ****
 37  38 0
 6-311+G(2d,p)
 ****
 1  2  3  4  5  17  18  19  20  21  22  23  24  25 0
 3-21G
 ****
 27  28  29  34  36  39  40  41  42  43  44  45  46 0
 3-21G
 ****


