%nproc=1
%NoSave
%Mem=1900MB
#P OB98/GEN NMR

erre ene a

0 1
  C      -32.662      11.997     215.874
  O      -33.900      11.398     216.269
  P      -33.853       9.889     216.810
  C      -33.277       7.621     215.628
  O      -33.152       9.038     215.647
  C      -32.477       7.040     214.463
  O      -33.162       7.272     213.208
  C      -31.096       7.654     214.290
  O      -30.192       7.186     215.277
  C      -30.767       7.224     212.865
  O      -30.300       5.867     212.846
  C      -32.146       7.317     212.177
  N      -32.290       8.502     211.339
  C      -32.224       8.284     209.965
  O      -32.030       7.173     209.469
  N      -32.367       9.393     209.178
  C      -32.535      10.674     209.620
  O      -32.666      11.629     208.864
  C      -32.547      10.848     211.081
  C      -32.425       9.771     211.862
  O      -35.395       9.482     216.730
  O      -33.235       9.775     218.163
  H      -35.856       9.881     215.972
  H      -29.516       5.835     213.431
  H      -32.334       9.254     208.180
  H      -32.652      11.854     211.467
  H      -32.430       9.879     212.944
  H      -32.312       6.434     211.547
  H      -29.986       7.845     212.408
  H      -31.165       8.748     214.339
  H      -32.391       5.956     214.615
  H      -34.327       7.341     215.517
  H      -32.927       7.223     216.586
  P      -29.858       8.191     216.488
  C      -28.435      10.374     216.706
  O      -28.916       9.337     215.880
  O      -28.862       7.296     217.368
  O      -31.067       8.671     217.221
  H      -28.200       6.827     216.833
  H      -27.566      10.831     216.223
  H      -28.136      10.002     217.687
  H      -29.212      11.136     216.825
  H      -32.841      12.997     215.537
  H      -32.226      11.426     215.081
  H      -31.993      12.017     216.709

 3  4  5  6  7  8  9  10  11  12  13  24  28  29  30  31  32 0
 6-311+G(2d,p)
 ****
 33  34 0
 6-311+G(2d,p)
 ****
 1  2  14  15  16  17  18  19  20  21  22  23  25  26  27 0
 3-21G
 ****
 35  36  37  38  39  40  41  42  43  44  45 0
 3-21G
 ****


