%nproc=1
%NoSave
%Mem=1900MB
#P OB98/GEN NMR

erre ene a

0 1
  C     -243.292     -70.070     353.923
  O     -244.027     -68.857     353.908
  P     -243.716     -67.687     354.960
  C     -243.614     -65.755     353.266
  O     -242.871     -66.603     354.133
  C     -243.497     -64.305     353.724
  O     -244.150     -64.179     355.010
  C     -242.076     -63.786     353.943
  O     -241.430     -63.319     352.769
  C     -242.347     -62.607     354.871
  O     -242.819     -61.485     354.104
  C     -243.465     -63.149     355.765
  N     -242.187     -62.123     360.611
  C     -242.692     -61.348     359.625
  N     -242.988     -61.691     358.354
  C     -242.752     -62.997     358.151
  C     -242.245     -63.913     359.057
  C     -241.955     -63.429     360.345
  N     -241.462     -64.226     361.355
  N     -242.122     -65.160     358.476
  C     -242.563     -64.998     357.244
  N     -242.963     -63.712     357.005
  O     -243.108     -68.149     356.236
  O     -245.124     -66.960     355.170
  H     -242.147     -61.303     353.421
  H     -245.100     -66.412     355.977
  H     -242.880     -60.311     359.891
  H     -242.607     -65.776     356.499
  H     -244.207     -62.383     356.020
  H     -241.454     -62.274     355.406
  H     -241.459     -64.523     354.470
  H     -244.036     -63.672     353.009
  H     -244.665     -66.062     353.305
  H     -241.408     -63.826     362.277
  H     -241.444     -65.226     361.205
  H     -243.258     -65.876     352.239
  P     -239.827     -63.202     352.812
  C     -239.594     -65.380     351.380
  O     -239.280     -64.688     352.568
  O     -239.288     -62.508     354.015
  O     -239.489     -62.455     351.437
  H     -239.672     -62.968     350.633
  H     -239.001     -66.297     351.339
  H     -239.359     -64.774     350.502
  H     -240.654     -65.647     351.371
  H     -243.651     -70.714     353.148
  H     -243.415     -70.550     354.871
  H     -242.255     -69.861     353.761

 3  4  5  6  7  8  9  10  11  12  22  25  29  30  31  32 0
 6-311+G(2d,p)
 ****
 33  36  37 0
 6-311+G(2d,p)
 ****
 1  2  13  14  15  16  17  18  19  20  21  23  24  26 0
 3-21G
 ****
 27  28  34  35  38  39  40  41  42  43  44  45  46  47  48 0
 3-21G
 ****


