%nproc=1
%NoSave
%Mem=1900MB
#P OB98/GEN NMR

erre ene a

0 1
  C     -248.204       4.476     200.847
  O     -247.030       3.753     201.155
  H     -248.886       4.479     201.701
  H     -247.928       5.508     200.611
  H     -248.698       4.035     199.976
  P     -247.235       2.235     201.634
  C     -246.354       3.025     203.940
  O     -247.332       2.273     203.237
  C     -247.019       3.885     205.008
  O     -248.217       4.493     204.483
  C     -247.466       3.124     206.251
  O     -246.382       2.861     207.131
  C     -248.447       4.121     206.853
  O     -247.724       5.136     207.574
  C     -249.106       4.730     205.606
  N     -254.129       5.695     205.145
  C     -253.083       6.491     205.467
  N     -251.781       6.165     205.582
  C     -251.588       4.865     205.308
  C     -252.554       3.933     204.965
  C     -253.880       4.390     204.892
  N     -254.939       3.567     204.579
  N     -251.983       2.699     204.743
  C     -250.694       2.878     204.948
  N     -250.407       4.172     205.298
  O     -245.805       1.562     201.367
  O     -248.327       1.489     200.944
  H     -247.317       4.696     208.344
  H     -245.939       0.639     201.082
  H     -253.328       7.534     205.655
  H     -249.938       2.108     204.849
  H     -249.216       5.817     205.701
  H     -249.151       3.663     207.551
  H     -248.000       2.206     205.985
  H     -246.324       4.690     205.276
  H     -245.820       3.675     203.238
  H     -255.825       3.986     204.350
  H     -254.742       2.591     204.384
  H     -245.639       2.334     204.398
  P     -246.094       1.326     207.512
  C     -244.998       2.185     209.701
  O     -245.944       1.302     209.109
  O     -244.597       1.101     206.997
  O     -247.041       0.338     206.922
  H     -244.450       0.153     206.807
  H     -245.008       2.059     210.763
  H     -245.254       3.196     209.459
  H     -244.021       1.965     209.325

 6  7  8  9  10  11  12  13  14  15  25  28  32  33  34  35 0
 6-311+G(2d,p)
 ****
 36  39  40 0
 6-311+G(2d,p)
 ****
 1  2  3  4  5  16  17  18  19  20  21  22  23  24 0
 3-21G
 ****
 26  27  29  30  31  37  38  41  42  43  44  45  46  47  48 0
 3-21G
 ****


