%nproc=1
%NoSave
%Mem=1900MB
#P OB98/GEN NMR

erre ene a

0 1
  C      436.629    -395.242     385.255
  O      435.523    -395.514     384.377
  P      435.798    -395.679     382.800
  C      435.108    -398.184     382.484
  O      436.150    -397.213     382.487
  C      435.698    -399.593     382.501
  O      436.721    -399.707     383.520
  C      434.698    -400.698     382.823
  O      433.874    -401.000     381.711
  C      435.623    -401.845     383.232
  O      436.122    -402.535     382.066
  C      436.767    -401.084     383.942
  N      436.698    -401.204     385.395
  C      436.754    -402.493     385.913
  O      436.804    -403.510     385.204
  N      436.730    -402.597     387.281
  C      436.574    -401.560     388.159
  O      436.531    -401.717     389.375
  C      436.433    -400.227     387.543
  C      436.491    -400.115     386.219
  O      437.236    -394.970     382.639
  O      434.786    -395.037     381.896
  H      436.872    -403.086     382.355
  H      437.321    -394.613     381.732
  H      436.798    -403.527     387.674
  H      436.284    -399.381     388.212
  H      436.388    -399.139     385.761
  H      437.733    -401.473     383.602
  H      435.122    -402.582     383.852
  H      434.088    -400.402     383.695
  H      436.171    -399.780     381.530
  H      434.505    -398.056     381.580
  H      434.467    -398.017     383.352
  P      432.603    -400.043     381.473
  C      433.729    -398.846     379.437
  O      433.181    -398.748     380.734
  O      432.287    -399.565     382.974
  O      431.460    -400.735     380.786
  H      433.106    -399.486     383.508
  H      433.225    -399.619     378.838
  H      434.799    -399.095     379.524
  H      433.634    -397.885     378.934
  H      436.274    -395.162     386.261
  H      437.095    -394.323     384.967
  H      437.341    -396.038     385.190

 3  4  5  6  7  8  9  10  11  12  13  23  28  29  30  31  32 0
 6-311+G(2d,p)
 ****
 33  34 0
 6-311+G(2d,p)
 ****
 1  2  14  15  16  17  18  19  20  21  22  24  25  26 0
 3-21G
 ****
 27  35  36  37  38  39  40  41  42  43  44  45 0
 3-21G
 ****


