%nproc=1
%NoSave
%Mem=1900MB
#P OB98/GEN NMR

erre ene a

0 1
  C      -21.704    -347.440    -434.508
  O      -21.471    -347.788    -433.155
  H      -21.357    -346.413    -434.673
  H      -22.772    -347.491    -434.731
  H      -21.152    -348.112    -435.171
  P      -22.009    -349.227    -432.689
  C      -19.713    -350.344    -433.235
  O      -21.103    -350.257    -433.522
  C      -19.254    -351.795    -433.341
  O      -19.345    -352.256    -434.705
  C      -17.797    -352.021    -432.934
  O      -17.620    -352.055    -431.523
  C      -17.543    -353.366    -433.573
  O      -18.161    -354.406    -432.789
  C      -18.259    -353.196    -434.938
  N      -17.367    -352.713    -435.995
  C      -16.721    -353.683    -436.767
  O      -16.890    -354.885    -436.538
  N      -15.857    -353.274    -437.757
  C      -15.677    -352.008    -437.972
  N      -14.798    -351.660    -438.955
  C      -16.349    -350.953    -437.194
  C      -17.168    -351.370    -436.238
  O      -23.431    -349.353    -433.414
  O      -22.048    -349.468    -431.214
  H      -17.640    -354.484    -431.968
  H      -23.795    -350.263    -433.288
  H      -16.149    -349.910    -437.401
  H      -17.696    -350.645    -435.622
  H      -18.707    -354.146    -435.264
  H      -16.478    -353.618    -433.647
  H      -17.135    -351.281    -433.391
  H      -19.935    -352.414    -432.739
  H      -14.301    -352.406    -439.433
  H      -19.546    -349.966    -432.219
  H      -14.456    -350.712    -439.073
  H      -19.145    -349.727    -433.936
  P      -16.174    -351.668    -430.946
  C      -17.045    -349.216    -430.793
  O      -15.988    -350.086    -431.183
  O      -15.171    -352.320    -432.006
  O      -15.901    -352.138    -429.547
  H      -14.384    -352.691    -431.564
  H      -16.774    -348.205    -431.013
  H      -17.221    -349.318    -429.743
  H      -17.934    -349.472    -431.330

 6  7  8  9  10  11  12  13  14  15  16  26  30  31  32  33  35 0
 6-311+G(2d,p)
 ****
 37  38 0
 6-311+G(2d,p)
 ****
 1  2  3  4  5  17  18  19  20  21  22  23  24  25 0
 3-21G
 ****
 27  28  29  34  36  39  40  41  42  43  44  45  46 0
 3-21G
 ****


