%nproc=1
%NoSave
%Mem=1900MB
#P OB98/GEN NMR

erre ene a

0 1
  C     -391.206    -465.311     113.809
  O     -389.939    -465.879     113.558
  H     -391.261    -464.340     113.305
  H     -391.352    -465.149     114.882
  H     -392.002    -465.950     113.414
  P     -389.604    -467.312     114.195
  C     -389.246    -468.119     116.633
  O     -389.642    -467.054     115.787
  C     -389.909    -467.975     118.002
  O     -391.345    -468.098     117.906
  C     -389.506    -469.033     119.026
  O     -388.194    -468.859     119.548
  C     -390.575    -468.797     120.076
  O     -390.273    -467.617     120.826
  C     -391.827    -468.602     119.188
  N     -392.586    -469.836     118.996
  C     -393.360    -470.275     120.073
  O     -393.378    -469.636     121.132
  N     -394.074    -471.442     119.958
  C     -393.997    -472.133     118.857
  N     -394.725    -473.290     118.791
  C     -393.191    -471.726     117.701
  C     -392.511    -470.578     117.833
  O     -388.371    -467.983     113.686
  O     -390.939    -468.173     113.981
  H     -391.073    -467.394     121.338
  H     -390.778    -469.077     114.351
  H     -393.136    -472.347     116.816
  H     -391.891    -470.214     117.023
  H     -392.488    -467.840     119.615
  H     -390.662    -469.623     120.795
  H     -389.627    -470.043     118.615
  H     -389.694    -466.960     118.366
  H     -395.273    -473.541     119.604
  H     -388.154    -468.100     116.721
  H     -394.672    -473.925     118.013
  H     -389.555    -469.068     116.198
  P     -387.579    -470.081     120.385
  C     -388.496    -471.100     122.605
  O     -388.145    -469.943     121.870
  O     -386.032    -469.687     120.510
  O     -387.767    -471.435     119.771
  H     -385.494    -470.155     119.842
  H     -388.853    -470.813     123.572
  H     -387.636    -471.728     122.714
  H     -389.264    -471.634     122.085

 6  7  8  9  10  11  12  13  14  15  16  26  30  31  32  33  35 0
 6-311+G(2d,p)
 ****
 37  38 0
 6-311+G(2d,p)
 ****
 1  2  3  4  5  17  18  19  20  21  22  23  24  25 0
 3-21G
 ****
 27  28  29  34  36  39  40  41  42  43  44  45  46 0
 3-21G
 ****


