%nproc=1
%NoSave
%Mem=1900MB
#P OB98/GEN NMR

erre ene a

0 1
  C     -159.676      -8.950    -118.014
  O     -159.750     -10.144    -117.240
  P     -161.196     -10.730    -116.871
  C     -161.426     -10.500    -114.244
  O     -161.738     -10.038    -115.539
  C     -162.313      -9.776    -113.217
  O     -162.062      -8.357    -113.257
  C     -163.806      -9.975    -113.464
  O     -164.293     -11.155    -112.855
  C     -164.392      -8.704    -112.882
  O     -164.445      -8.790    -111.446
  C     -163.338      -7.657    -113.321
  N     -163.480      -7.048    -114.663
  C     -164.580      -6.246    -114.949
  O     -165.481      -5.997    -114.149
  N     -164.623      -5.707    -116.207
  C     -163.623      -5.743    -117.135
  O     -163.692      -5.192    -118.228
  C     -162.420      -6.476    -116.731
  C     -162.405      -7.095    -115.544
  O     -160.892     -12.235    -116.426
  O     -162.188     -10.666    -117.991
  H     -163.538      -8.958    -111.133
  H     -161.306     -12.864    -117.046
  H     -165.447      -5.183    -116.457
  H     -161.583      -6.492    -117.414
  H     -161.520      -7.641    -115.235
  H     -163.297      -6.829    -112.604
  H     -165.415      -8.551    -113.215
  H     -164.016      -9.976    -114.541
  H     -162.051     -10.140    -112.217
  H     -160.372     -10.330    -114.013
  H     -161.592     -11.583    -114.188
  P     -164.493     -12.482    -113.729
  C     -167.042     -12.360    -113.476
  O     -165.955     -12.355    -114.380
  O     -164.200     -13.770    -113.038
  O     -163.533     -12.245    -114.992
  H     -162.660     -12.684    -114.853
  H     -167.955     -12.109    -114.025
  H     -166.889     -11.615    -112.687
  H     -167.154     -13.349    -113.031
  H     -158.650      -8.692    -118.174
  H     -160.167      -8.155    -117.492
  H     -160.156      -9.106    -118.958

 3  4  5  6  7  8  9  10  11  12  13  23  28  29  30  31  32 0
 6-311+G(2d,p)
 ****
 33  34 0
 6-311+G(2d,p)
 ****
 1  2  14  15  16  17  18  19  20  21  22  24  25  26  27 0
 3-21G
 ****
 35  36  37  38  39  40  41  42  43  44  45 0
 3-21G
 ****


