%nproc=1
%NoSave
%Mem=1900MB
#P OB98/GEN NMR

erre ene a

0 1
  C     -191.104    -676.263     -85.695
  O     -191.564    -676.881     -84.505
  P     -192.373    -678.267     -84.562
  C     -192.688    -677.726     -82.070
  O     -192.477    -678.751     -83.029
  C     -192.547    -678.306     -80.653
  O     -193.463    -679.422     -80.532
  C     -191.171    -678.859     -80.288
  O     -190.243    -677.891     -79.825
  C     -191.545    -679.792     -79.136
  O     -191.726    -679.022     -77.931
  C     -192.867    -680.380     -79.613
  N     -192.579    -685.450     -78.955
  C     -192.777    -684.435     -78.086
  N     -192.822    -683.111     -78.339
  C     -192.690    -682.867     -79.659
  C     -192.482    -683.799     -80.666
  C     -192.430    -685.154     -80.271
  N     -192.255    -686.187     -81.161
  N     -192.369    -683.172     -81.889
  C     -192.508    -681.885     -81.618
  N     -192.712    -681.659     -80.285
  O     -191.824    -679.269     -85.525
  O     -193.872    -677.837     -84.899
  H     -191.001    -678.370     -77.879
  H     -194.378    -678.615     -85.221
  H     -192.914    -684.729     -77.049
  H     -192.469    -681.096     -82.352
  H     -193.586    -680.518     -78.781
  H     -190.759    -680.528     -78.914
  H     -190.750    -679.459     -81.114
  H     -192.856    -677.529     -79.937
  H     -193.697    -677.332     -82.198
  H     -192.364    -687.118     -80.817
  H     -192.310    -685.973     -82.155
  H     -191.972    -676.910     -82.225
  P     -189.171    -677.341     -80.897
  C     -187.776    -676.719     -78.761
  O     -188.188    -676.367     -80.068
  O     -189.763    -676.753     -82.132
  O     -188.257    -678.627     -81.174
  H     -187.723    -678.931     -80.430
  H     -186.996    -676.020     -78.444
  H     -187.355    -677.736     -78.746
  H     -188.607    -676.662     -78.069
  H     -190.592    -675.356     -85.451
  H     -191.938    -676.042     -86.328
  H     -190.435    -676.924     -86.205

 3  4  5  6  7  8  9  10  11  12  22  25  29  30  31  32 0
 6-311+G(2d,p)
 ****
 33  36  37 0
 6-311+G(2d,p)
 ****
 1  2  13  14  15  16  17  18  19  20  21  23  24  26 0
 3-21G
 ****
 27  28  34  35  38  39  40  41  42  43  44  45  46  47  48 0
 3-21G
 ****


