%nproc=1
%NoSave
%Mem=1900MB
#P OB98/GEN NMR

erre ene a

0 1
  C     -352.355    -129.494    -751.212
  O     -352.029    -128.107    -751.035
  P     -350.486    -127.683    -751.160
  C     -349.786    -126.193    -749.141
  O     -350.294    -126.246    -750.468
  C     -349.886    -124.772    -748.583
  O     -349.027    -123.848    -749.299
  C     -351.279    -124.171    -748.680
  O     -352.111    -124.612    -747.612
  C     -350.976    -122.689    -748.538
  O     -350.778    -122.359    -747.151
  C     -349.655    -122.552    -749.308
  N     -349.891    -118.516    -752.457
  C     -349.742    -118.609    -751.114
  N     -349.710    -119.716    -750.349
  C     -349.829    -120.819    -751.103
  C     -349.978    -120.886    -752.481
  C     -350.014    -119.662    -753.169
  N     -350.152    -119.577    -754.540
  N     -350.085    -122.191    -752.904
  C     -349.980    -122.911    -751.799
  N     -349.828    -122.126    -750.689
  O     -350.332    -127.355    -752.721
  O     -349.525    -128.731    -750.721
  H     -350.391    -121.466    -747.117
  H     -349.436    -127.606    -753.023
  H     -349.643    -117.663    -750.588
  H     -349.993    -123.988    -751.755
  H     -348.970    -121.847    -748.832
  H     -351.790    -122.056    -748.906
  H     -351.728    -124.374    -749.664
  H     -349.565    -124.797    -747.536
  H     -348.741    -126.523    -749.133
  H     -350.144    -118.663    -754.961
  H     -350.228    -120.432    -755.074
  H     -350.338    -126.898    -748.519
  P     -353.271    -125.656    -747.971
  C     -355.097    -124.776    -746.348
  O     -354.157    -125.787    -746.641
  O     -352.493    -127.051    -748.061
  O     -354.017    -125.346    -749.228
  H     -352.940    -127.644    -748.700
  H     -355.806    -125.160    -745.605
  H     -355.655    -124.476    -747.235
  H     -354.586    -123.903    -745.926
  H     -353.411    -129.629    -751.102
  H     -351.842    -130.078    -750.476
  H     -352.055    -129.809    -752.190

 3  4  5  6  7  8  9  10  11  12  22  25  29  30  31  32 0
 6-311+G(2d,p)
 ****
 33  36  37 0
 6-311+G(2d,p)
 ****
 1  2  13  14  15  16  17  18  19  20  21  23  24  26 0
 3-21G
 ****
 27  28  34  35  38  39  40  41  42  43  44  45  46  47  48 0
 3-21G
 ****


