%nproc=1
%NoSave
%Mem=1900MB
#P OB98/GEN NMR

erre ene a

0 1
  C     -477.532     466.574    -966.677
  O     -478.625     466.256    -967.525
  P     -478.413     466.153    -969.113
  C     -479.980     464.095    -969.227
  O     -479.749     465.437    -969.668
  C     -481.432     463.916    -968.786
  O     -481.672     464.604    -967.538
  C     -482.468     464.464    -969.770
  O     -482.634     463.568    -970.869
  C     -483.687     464.581    -968.865
  O     -484.369     463.323    -968.736
  C     -483.061     465.022    -967.510
  N     -483.192     466.438    -967.272
  C     -484.508     466.934    -967.253
  O     -485.457     466.176    -967.466
  N     -484.712     468.274    -967.034
  C     -483.713     469.058    -966.883
  N     -483.961     470.396    -966.687
  C     -482.296     468.597    -966.927
  C     -482.112     467.297    -967.119
  O     -477.131     465.535    -969.552
  O     -478.602     467.672    -969.607
  H     -485.191     463.522    -968.229
  H     -477.803     468.206    -969.380
  H     -481.474     469.288    -966.791
  H     -481.131     466.858    -967.175
  H     -483.521     464.473    -966.680
  H     -484.410     465.310    -969.257
  H     -482.161     465.443    -970.103
  H     -481.609     462.844    -968.608
  H     -484.931     470.664    -966.693
  H     -479.308     463.879    -968.384
  H     -483.256     471.088    -966.579
  H     -479.731     463.401    -970.044
  P     -482.838     464.146    -972.336
  C     -481.566     462.447    -973.786
  O     -482.842     462.906    -973.361
  O     -481.968     465.305    -972.709
  O     -484.392     464.601    -972.333
  H     -484.457     465.483    -972.752
  H     -481.670     461.457    -974.208
  H     -480.858     462.446    -972.964
  H     -481.195     463.125    -974.577
  H     -477.864     466.597    -965.660
  H     -477.139     467.532    -966.946
  H     -476.769     465.832    -966.786

 3  4  5  6  7  8  9  10  11  12  13  23  27  28  29  30  32 0
 6-311+G(2d,p)
 ****
 34  35 0
 6-311+G(2d,p)
 ****
 1  2  14  15  16  17  18  19  20  21  22  24  25  26 0
 3-21G
 ****
 31  33  36  37  38  39  40  41  42  43  44  45  46 0
 3-21G
 ****


