%nproc=1
%NoSave
%Mem=1900MB
#P OB98/GEN NMR

erre ene a

0 1
  C       52.651     386.629    -332.046
  O       52.003     386.982    -330.837
  H       53.712     386.865    -331.954
  H       52.230     387.209    -332.873
  H       52.539     385.558    -332.240
  P       50.462     386.551    -330.691
  C       50.913     385.089    -328.559
  O       50.475     385.154    -329.902
  C       52.125     384.166    -328.427
  O       53.216     384.725    -329.204
  C       52.615     383.993    -326.985
  O       53.092     382.651    -326.833
  C       53.788     384.956    -326.897
  O       54.698     384.596    -325.862
  C       54.357     384.873    -328.323
  N       55.154     386.045    -328.671
  C       56.522     385.974    -328.395
  O       56.997     384.965    -327.872
  N       57.319     387.057    -328.676
  C       56.780     388.144    -329.132
  N       57.611     389.193    -329.370
  C       55.330     388.281    -329.398
  C       54.590     387.203    -329.151
  O       50.095     386.135    -332.194
  O       49.581     387.603    -330.111
  H       55.289     385.362    -325.686
  H       50.777     385.591    -332.621
  H       54.928     389.214    -329.769
  H       53.520     387.211    -329.329
  H       54.980     383.979    -328.438
  H       53.423     385.970    -326.688
  H       51.841     384.194    -326.249
  H       51.877     383.199    -328.878
  H       58.592     389.062    -329.154
  H       50.106     384.720    -327.913
  H       57.298     390.103    -329.671
  H       51.168     386.102    -328.233
  P       52.459     381.716    -325.702
  C       52.103     379.579    -327.116
  O       51.493     380.633    -326.384
  O       51.885     382.420    -324.516
  O       53.714     380.814    -325.252
  H       53.682     380.720    -324.284
  H       51.346     378.936    -327.513
  H       52.743     379.018    -326.467
  H       52.679     379.989    -327.919

 6  7  8  9  10  11  12  13  14  15  16  26  30  31  32  33  35 0
 6-311+G(2d,p)
 ****
 37  38 0
 6-311+G(2d,p)
 ****
 1  2  3  4  5  17  18  19  20  21  22  23  24  25 0
 3-21G
 ****
 27  28  29  34  36  39  40  41  42  43  44  45  46 0
 3-21G
 ****


