%nproc=1
%NoSave
%Mem=1900MB
#P OB98/GEN NMR

erre ene a

0 1
  C      294.492     525.137     212.038
  O      293.424     526.088     212.053
  P      293.765     527.646     211.908
  C      291.998     529.125     213.067
  O      292.376     528.460     211.869
  C      290.639     529.803     212.907
  O      290.671     530.811     211.878
  C      289.534     528.846     212.490
  O      289.132     528.039     213.594
  C      288.476     529.798     211.974
  O      287.695     530.357     213.066
  C      289.329     530.905     211.333
  N      289.348     530.835     209.876
  C      288.099     530.985     209.238
  O      287.075     531.134     209.915
  N      288.048     530.967     207.865
  C      289.145     530.799     207.188
  N      289.040     530.782     205.833
  C      290.466     530.634     207.822
  C      290.492     530.656     209.156
  O      294.741     527.997     210.826
  O      294.346     528.025     213.358
  H      288.327     530.886     213.605
  H      294.988     528.753     213.253
  H      291.361     530.502     207.201
  H      291.431     530.530     209.692
  H      288.949     531.908     211.616
  H      287.768     529.316     211.305
  H      289.884     528.204     211.670
  H      290.381     530.286     213.855
  H      288.111     530.900     205.428
  H      292.754     529.866     213.333
  H      289.839     530.711     205.214
  H      291.982     528.384     213.883
  P      290.060     526.777     213.966
  C      288.381     524.854     214.377
  O      289.226     525.824     214.958
  O      291.172     527.434     214.942
  O      290.708     526.092     212.793
  H      292.022     526.977     214.808
  H      288.145     524.105     215.135
  H      288.846     524.356     213.533
  H      287.451     525.325     214.053
  H      294.092     524.150     212.145
  H      295.162     525.340     212.847
  H      295.021     525.209     211.111

 3  4  5  6  7  8  9  10  11  12  13  23  27  28  29  30  32 0
 6-311+G(2d,p)
 ****
 34  35 0
 6-311+G(2d,p)
 ****
 1  2  14  15  16  17  18  19  20  21  22  24  25  26 0
 3-21G
 ****
 31  33  36  37  38  39  40  41  42  43  44  45  46 0
 3-21G
 ****


