%nproc=1
%NoSave
%Mem=1900MB
#P OB98/GEN NMR

erre ene a

0 1
  C     -229.664    -363.941     332.596
  O     -229.893    -364.176     333.970
  H     -230.360    -364.551     332.015
  H     -228.643    -364.230     332.334
  H     -229.827    -362.889     332.346
  P     -229.196    -363.216     335.047
  C     -231.284    -363.043     336.554
  O     -229.938    -363.481     336.449
  C     -232.247    -364.131     336.074
  O     -231.868    -365.398     336.692
  C     -233.722    -363.868     336.434
  O     -234.529    -364.435     335.392
  C     -233.853    -364.669     337.720
  O     -235.196    -364.850     338.087
  C     -233.052    -365.913     337.336
  N     -232.715    -366.764     338.470
  C     -233.717    -367.582     338.976
  O     -234.852    -367.652     338.503
  N     -233.375    -368.338     340.065
  C     -232.159    -368.347     340.685
  O     -231.899    -369.061     341.648
  C     -231.150    -367.436     340.126
  C     -231.470    -366.697     339.062
  O     -229.080    -361.781     334.658
  O     -227.758    -363.884     335.274
  H     -227.094    -363.422     334.732
  H     -235.625    -363.985     338.259
  H     -234.090    -368.943     340.444
  H     -230.185    -367.400     340.610
  H     -230.752    -366.012     338.621
  H     -233.591    -366.505     336.590
  H     -233.374    -364.137     338.545
  H     -233.955    -362.807     336.541
  H     -232.124    -364.260     334.988
  H     -231.402    -362.145     335.940
  H     -231.501    -362.794     337.599
  P     -235.318    -363.549     334.311
  C     -235.145    -365.501     332.630
  O     -235.989    -364.517     333.219
  O     -234.489    -362.461     333.708
  O     -236.572    -362.932     335.095
  H     -236.752    -362.035     334.757
  H     -235.707    -366.077     331.925
  H     -234.763    -366.146     333.393
  H     -234.331    -365.019     332.129

 6  7  8  9  10  11  12  13  14  15  16  27  31  32  33  34  35 0
 6-311+G(2d,p)
 ****
 36  37 0
 6-311+G(2d,p)
 ****
 1  2  3  4  5  17  18  19  20  21  22  23  24  25 0
 3-21G
 ****
 26  28  29  30  38  39  40  41  42  43  44  45 0
 3-21G
 ****


