%nproc=1
%NoSave
%Mem=1900MB
#P OB98/GEN NMR

erre ene a

0 1
  C     -279.145     370.122    -463.608
  O     -280.163     370.034    -464.616
  P     -280.268     368.781    -465.608
  C     -282.493     368.067    -464.534
  O     -281.187     367.661    -464.922
  C     -283.191     367.000    -463.673
  O     -282.412     366.730    -462.478
  C     -284.586     367.393    -463.183
  O     -285.538     367.199    -464.212
  C     -284.748     366.454    -461.985
  O     -285.139     365.142    -462.406
  C     -283.323     366.431    -461.398
  N     -283.337     366.927    -456.311
  C     -283.537     365.858    -457.118
  N     -283.519     365.808    -458.468
  C     -283.248     367.023    -458.979
  C     -283.034     368.199    -458.287
  C     -283.091     368.129    -456.886
  N     -282.911     369.220    -456.069
  N     -282.812     369.250    -459.166
  C     -282.874     368.699    -460.361
  N     -283.130     367.355    -460.298
  O     -278.951     368.274    -466.105
  O     -281.168     369.304    -466.824
  H     -285.168     364.580    -461.614
  H     -280.941     368.814    -467.640
  H     -283.722     364.918    -456.606
  H     -282.732     369.236    -461.291
  H     -283.058     365.427    -461.035
  H     -285.497     366.808    -461.272
  H     -284.580     368.426    -462.834
  H     -283.227     366.069    -464.241
  H     -283.089     368.234    -465.447
  H     -282.996     369.096    -455.077
  H     -282.772     370.131    -456.487
  H     -282.424     369.002    -463.982
  P     -285.578     368.211    -465.463
  C     -285.294     366.264    -467.112
  O     -284.775     367.494    -466.663
  O     -285.147     369.614    -465.172
  O     -287.083     368.149    -465.962
  H     -287.327     369.009    -466.358
  H     -284.999     365.472    -466.443
  H     -284.905     366.065    -468.114
  H     -286.396     366.307    -467.168
  H     -279.261     371.036    -463.063
  H     -278.181     370.103    -464.072
  H     -279.234     369.293    -462.937

 3  4  5  6  7  8  9  10  11  12  22  25  29  30  31  32 0
 6-311+G(2d,p)
 ****
 33  36  37 0
 6-311+G(2d,p)
 ****
 1  2  13  14  15  16  17  18  19  20  21  23  24  26 0
 3-21G
 ****
 27  28  34  35  38  39  40  41  42  43  44  45  46  47  48 0
 3-21G
 ****


