%nproc=1
%NoSave
%Mem=1900MB
#P OB98/GEN NMR

erre ene a

0 1
  C      106.295     799.503     787.022
  O      106.085     799.891     785.661
  P      106.280     801.417     785.224
  C      106.529     802.760     783.036
  O      106.456     801.464     783.623
  C      106.706     802.638     781.532
  O      108.059     802.266     781.185
  C      105.827     801.577     780.876
  O      104.466     801.969     780.820
  C      106.515     801.428     779.515
  O      106.103     802.462     778.618
  C      107.989     801.602     779.894
  N      108.714     800.326     779.933
  C      109.402     799.991     778.762
  O      109.350     800.707     777.773
  N      110.176     798.840     778.785
  C      110.139     798.055     779.802
  N      110.968     796.958     779.785
  C      109.277     798.292     780.998
  C      108.618     799.440     781.001
  O      107.335     802.162     785.999
  O      104.848     802.085     785.433
  H      104.941     802.895     785.954
  H      106.625     802.341     777.796
  H      109.247     797.549     781.785
  H      107.982     799.724     781.818
  H      108.491     802.259     779.195
  H      106.263     800.459     779.039
  H      105.916     800.633     781.440
  H      106.504     803.640     781.088
  H      111.553     796.836     778.969
  H      107.387     803.283     783.472
  H      111.237     796.478     780.639
  H      105.618     803.308     783.281
  P      103.409     800.829     780.390
  C      101.244     799.812     781.415
  O      102.275     800.784     781.528
  O      104.215     799.459     780.608
  O      102.887     800.940     779.004
  H      103.969     798.822     779.924
  H      100.784     799.676     782.395
  H      101.620     798.854     781.064
  H      100.486     800.177     780.710
  H      106.120     798.452     787.125
  H      105.620     800.041     787.654
  H      107.303     799.726     787.305

 3  4  5  6  7  8  9  10  11  12  13  24  27  28  29  30  32 0
 6-311+G(2d,p)
 ****
 34  35 0
 6-311+G(2d,p)
 ****
 1  2  14  15  16  17  18  19  20  21  22  23  25  26 0
 3-21G
 ****
 31  33  36  37  38  39  40  41  42  43  44  45  46 0
 3-21G
 ****


