%nproc=1
%NoSave
%Mem=1900MB
#P OB98/GEN NMR

erre ene a

0 1
  C       89.623     182.890     -81.052
  O       90.567     183.468     -81.931
  H       89.730     181.802     -81.090
  H       88.607     183.150     -81.365
  H       89.792     183.223     -80.025
  P       90.725     185.063     -81.953
  C       89.109     187.058     -82.207
  O       89.314     185.667     -82.413
  C       88.514     187.686     -83.466
  O       89.436     187.555     -84.572
  C       87.219     187.030     -83.928
  O       86.127     187.432     -83.125
  C       87.157     187.505     -85.372
  O       86.644     188.843     -85.452
  C       88.646     187.457     -85.780
  N       88.991     186.258     -86.540
  C       88.650     186.259     -87.890
  O       88.061     187.191     -88.437
  N       88.986     185.131     -88.591
  C       89.511     183.988     -88.064
  O       89.710     182.970     -88.719
  C       89.828     184.033     -86.629
  C       89.559     185.148     -85.944
  O       91.908     185.585     -82.696
  O       90.792     185.456     -80.400
  H       85.740     188.812     -85.084
  H       91.712     185.675     -80.161
  H       88.737     185.108     -89.566
  H       90.258     183.149     -86.177
  H       89.779     185.198     -84.885
  H       88.901     188.335     -86.390
  H       86.512     186.876     -85.986
  H       87.325     185.939     -83.919
  H       88.364     188.759     -83.278
  H       90.075     187.528     -81.988
  H       88.442     187.196     -81.351
  P       84.967     186.388     -82.774
  C       83.223     185.106     -84.162
  O       83.984     186.305     -84.040
  O       84.288     186.604     -81.462
  O       85.711     184.972     -82.801
  H       85.640     184.552     -81.922
  H       82.608     185.161     -85.036
  H       82.604     184.987     -83.297
  H       83.886     184.270     -84.245

 6  7  8  9  10  11  12  13  14  15  16  26  31  32  33  34  35 0
 6-311+G(2d,p)
 ****
 36  37 0
 6-311+G(2d,p)
 ****
 1  2  3  4  5  17  18  19  20  21  22  23  24  25 0
 3-21G
 ****
 27  28  29  30  38  39  40  41  42  43  44  45 0
 3-21G
 ****


