%nproc=1
%NoSave
%Mem=1900MB
#P OB98/GEN NMR

erre ene a

0 1
  C      498.418     522.364    -895.520
  O      498.893     521.783    -894.320
  H      497.915     523.296    -895.280
  H      497.702     521.688    -895.990
  H      499.238     522.571    -896.210
  P      499.968     520.598    -894.410
  C      501.666     522.340    -893.540
  O      501.424     521.287    -894.450
  C      503.138     522.761    -893.550
  O      503.984     521.575    -893.480
  C      503.487     523.470    -894.860
  O      504.549     524.408    -894.710
  C      503.965     522.324    -895.750
  O      504.778     522.765    -896.840
  C      504.681     521.442    -894.750
  N      506.424     517.983    -898.040
  C      506.491     519.367    -898.100
  N      507.098     519.887    -899.200
  N      506.015     520.164    -897.180
  C      505.390     519.487    -896.180
  C      505.219     518.136    -896.020
  C      505.798     517.259    -897.030
  O      505.742     516.036    -897.050
  N      504.502     517.834    -894.900
  C      504.217     519.008    -894.370
  N      504.743     520.053    -895.110
  O      499.806     520.046    -895.900
  O      499.815     519.504    -893.400
  H      505.122     521.972    -897.290
  H      500.102     519.116    -895.950
  H      506.826     517.419    -898.780
  H      503.641     519.169    -893.460
  H      505.701     521.788    -894.590
  H      503.080     521.846    -896.190
  H      507.319     519.334    -900.000
  H      502.616     523.984    -895.290
  H      506.903     520.879    -899.400
  H      503.369     523.369    -892.660
  H      501.400     521.979    -892.540
  H      501.026     523.199    -893.760
  P      504.457     525.441    -893.490
  C      506.049     523.836    -892.130
  O      504.885     524.641    -892.150
  O      502.878     525.686    -893.310
  O      505.197     526.707    -893.710
  H      502.628     526.561    -893.650
  H      506.160     523.394    -891.162
  H      506.905     524.441    -892.346
  H      505.962     523.065    -892.867

 6  7  8  9  10  11  12  13  14  15  26  29  33  34 0
 6-311+G(2d,p)
 ****
 36  38  39  40  41 0
 6-311+G(2d,p)
 ****
 1  2  3  4  5  16  17  18  19  20  21  22  23  24  25 0
 3-21G
 ****
 27  28  30  31  32  35  37  42  43  44  45  46  47 0
 3-21G
 ****
 48  49 0
 3-21G
 ****


