%nproc=1
%NoSave
%Mem=1900MB
#P OB98/GEN NMR

erre ene a

0 1
  C      -50.388     531.533     745.522
  O      -49.833     532.799     745.187
  P      -50.836     534.039     745.050
  C      -50.758     536.571     745.692
  O      -50.141     535.295     745.774
  C      -50.827     537.197     747.084
  O      -51.516     536.324     748.003
  C      -49.453     537.451     747.707
  O      -48.852     538.622     747.178
  C      -49.812     537.565     749.184
  O      -50.265     538.886     749.510
  C      -50.966     536.551     749.317
  N      -50.538     535.301     749.949
  C      -50.090     535.405     751.262
  O      -50.026     536.473     751.861
  N      -49.675     534.239     751.848
  C      -49.623     533.012     751.250
  O      -49.193     532.015     751.813
  C      -50.080     532.972     749.856
  C      -50.500     534.098     749.273
  O      -52.046     533.659     746.041
  O      -51.318     534.308     743.663
  H      -51.081     539.038     748.996
  H      -52.889     533.990     745.664
  H      -49.379     534.282     752.807
  H      -50.054     532.015     749.342
  H      -50.834     534.085     748.236
  H      -51.771     536.976     749.921
  H      -48.953     537.355     749.827
  H      -48.812     536.578     747.556
  H      -51.394     538.131     747.013
  H      -51.772     536.449     745.287
  H      -50.187     537.209     745.006
  P      -47.417     539.031     747.765
  C      -45.389     540.280     746.690
  O      -46.776     539.999     746.654
  O      -46.631     537.635     747.622
  O      -47.484     539.564     749.153
  H      -46.928     537.125     746.847
  H      -44.811     539.411     747.017
  H      -45.207     541.123     747.357
  H      -45.072     540.551     745.678
  H      -49.606     530.805     745.579
  H      -51.093     531.242     744.771
  H      -50.883     531.600     746.468

 3  4  5  6  7  8  9  10  11  12  13  23  28  29  30  31  32 0
 6-311+G(2d,p)
 ****
 33  34 0
 6-311+G(2d,p)
 ****
 1  2  14  15  16  17  18  19  20  21  22  24  25  26 0
 3-21G
 ****
 27  35  36  37  38  39  40  41  42  43  44  45 0
 3-21G
 ****


