%nproc=1
%NoSave
%Mem=1900MB
#P OB98/GEN NMR

erre ene a

0 1
  C      439.746     523.657      98.565
  O      439.900     523.233      99.902
  H      440.694     524.077      98.220
  H      438.978     524.435      98.514
  H      439.471     522.826      97.910
  P      438.843     522.191     100.506
  C      440.216     520.007     100.353
  O      439.130     520.753      99.833
  C      439.771     518.644     100.889
  O      439.095     517.912      99.844
  C      440.939     517.782     101.362
  O      441.328     517.999     102.704
  C      440.381     516.372     101.175
  O      439.667     515.928     102.342
  C      439.422     516.521      99.987
  N      439.838     512.562      96.774
  C      439.297     512.588      98.044
  N      438.852     511.412      98.526
  N      439.228     513.675      98.768
  C      439.799     514.761      98.197
  C      440.380     514.848      96.940
  C      440.389     513.659      96.121
  O      440.840     513.584      94.979
  N      440.897     516.097      96.719
  C      440.706     516.735      97.851
  N      439.977     515.993      98.752
  O      437.458     522.619      99.822
  O      438.720     522.182     101.997
  H      439.268     515.056     102.136
  H      436.722     522.424     100.429
  H      439.838     511.714      96.247
  H      441.030     517.748      98.069
  H      438.475     515.991     100.161
  H      441.187     515.648     101.011
  H      438.959     510.535      98.043
  H      441.798     517.902     100.696
  H      438.634     511.351      99.526
  H      439.038     518.802     101.693
  H      440.649     520.604     101.166
  H      440.997     519.878      99.591
  P      442.707     517.428     103.265
  C      444.365     519.431     102.864
  O      443.903     518.148     102.490
  O      442.746     515.936     102.685
  O      442.872     517.464     104.757
  H      442.456     515.300     103.367
  H      445.166     519.724     102.218
  H      444.714     519.404     103.875
  H      443.565     520.136     102.782

 6  7  8  9  10  11  12  13  14  15  26  29  33  34 0
 6-311+G(2d,p)
 ****
 36  38  39  40  41 0
 6-311+G(2d,p)
 ****
 1  2  3  4  5  16  17  18  19  20  21  22  23  24  25 0
 3-21G
 ****
 27  28  30  31  32  35  37  42  43  44  45  46  47 0
 3-21G
 ****
 48  49 0
 3-21G
 ****


