%nproc=1
%NoSave
%Mem=1900MB
#P OB98/GEN NMR

erre ene a

0 1
  C     -101.618     234.612     569.486
  O     -102.281     234.242     570.691
  P     -101.619     234.649     572.092
  C     -102.600     237.006     572.801
  O     -102.613     235.600     572.905
  C     -103.493     237.599     573.898
  O     -103.333     239.038     573.950
  C     -104.980     237.327     573.684
  O     -105.372     236.078     574.229
  C     -105.622     238.515     574.370
  O     -105.619     238.330     575.798
  C     -104.654     239.652     573.971
  N     -104.877     240.337     572.678
  C     -106.016     241.115     572.494
  O     -106.888     241.279     573.343
  N     -106.135     241.728     571.272
  C     -105.181     241.786     570.301
  O     -105.317     242.400     569.252
  C     -103.934     241.071     570.608
  C     -103.844     240.386     571.750
  O     -100.423     235.624     571.675
  O     -101.142     233.496     572.910
  H     -106.103     237.507     575.987
  H      -99.563     235.225     571.911
  H     -106.990     242.234     571.093
  H     -103.130     241.133     569.885
  H     -102.925     239.852     571.984
  H     -104.637     240.434     574.740
  H     -106.665     238.623     574.080
  H     -105.228     237.379     572.620
  H     -103.174     237.190     574.866
  H     -102.953     237.324     571.817
  H     -101.577     237.373     572.906
  P     -106.148     235.020     573.315
  C     -104.398     233.868     571.838
  O     -105.107     233.822     573.059
  O     -106.820     235.567     572.099
  O     -107.198     234.349     574.327
  H     -108.078     234.785     574.257
  H     -103.617     233.103     571.851
  H     -103.929     234.850     571.701
  H     -105.078     233.663     571.003
  H     -102.186     234.268     568.647
  H     -100.644     234.169     569.464
  H     -101.526     235.677     569.442

 3  4  5  6  7  8  9  10  11  12  13  23  28  29  30  31  32 0
 6-311+G(2d,p)
 ****
 33  34 0
 6-311+G(2d,p)
 ****
 1  2  14  15  16  17  18  19  20  21  22  24  25  26  27 0
 3-21G
 ****
 35  36  37  38  39  40  41  42  43  44  45 0
 3-21G
 ****


