%nproc=1
%NoSave
%Mem=1900MB
#P OB98/GEN NMR

erre ene a

0 1
  C       83.745     657.370    -187.341
  O       84.210     656.143    -186.774
  P       85.409     656.268    -185.712
  C       84.123     655.820    -183.506
  O       84.788     656.768    -184.320
  C       84.373     656.109    -182.021
  O       85.684     655.692    -181.594
  C       84.268     657.585    -181.673
  O       82.906     657.962    -181.547
  C       85.030     657.644    -180.350
  O       84.183     657.286    -179.244
  C       86.134     656.597    -180.557
  N       90.629     658.112    -178.764
  C       89.478     657.764    -178.081
  N       89.542     657.787    -176.732
  N       88.359     657.405    -178.671
  C       88.446     657.421    -180.021
  C       89.537     657.723    -180.806
  C       90.761     658.121    -180.147
  O       91.809     658.423    -180.701
  N       89.254     657.567    -182.144
  C       87.959     657.294    -182.161
  N       87.444     657.127    -180.908
  O       86.247     657.523    -186.244
  O       86.256     655.035    -185.625
  H       83.391     657.863    -179.250
  H       87.104     657.215    -186.599
  H       91.457     658.389    -178.256
  H       87.367     657.170    -183.059
  H       86.284     655.995    -179.648
  H       85.399     658.660    -180.143
  H       90.366     658.053    -176.217
  H       84.779     658.195    -182.430
  H       88.713     657.526    -176.219
  H       83.630     655.537    -181.444
  H       84.468     654.815    -183.742
  H       83.051     655.849    -183.733
  P       82.397     659.227    -182.393
  C       80.226     658.101    -183.263
  O       81.478     658.675    -183.574
  O       83.730     659.727    -183.132
  O       81.794     660.317    -181.566
  H       83.784     660.698    -183.076
  H       79.541     658.260    -184.095
  H       79.790     658.554    -182.362
  H       80.347     657.026    -183.102
  H       82.951     657.167    -188.029
  H       84.549     657.852    -187.856
  H       83.386     658.010    -186.562

 3  4  5  6  7  8  9  10  11  12  23  26  30  31 0
 6-311+G(2d,p)
 ****
 33  35  36  37  38 0
 6-311+G(2d,p)
 ****
 1  2  13  14  15  16  17  18  19  20  21  22  24  25 0
 3-21G
 ****
 27  28  29  32  34  39  40  41  42  43  44  45  46  47  48  49 0
 3-21G
 ****


