%nproc=1
%NoSave
%Mem=1900MB
#P OB98/GEN NMR

erre ene a

0 1
  C      -96.805     149.327    -131.842
  O      -97.487     150.022    -132.867
  H      -95.901     149.885    -131.582
  H      -96.515     148.335    -132.197
  H      -97.432     149.237    -130.952
  P      -98.948     149.480    -133.254
  C      -98.081     147.755    -134.991
  O      -98.754     147.969    -133.759
  C      -98.831     146.727    -135.833
  O      -98.592     145.394    -135.329
  C     -100.345     146.911    -135.843
  O     -100.751     147.893    -136.789
  C     -100.793     145.524    -136.269
  O     -100.595     145.362    -137.690
  C      -99.818     144.628    -135.493
  N     -103.164     141.731    -133.017
  C     -102.973     141.906    -134.376
  N     -103.799     141.215    -135.193
  N     -102.058     142.686    -134.890
  C     -101.314     143.324    -133.954
  C     -101.407     143.234    -132.583
  C     -102.415     142.358    -132.028
  O     -102.611     142.150    -130.834
  N     -100.472     144.019    -131.963
  C      -99.830     144.603    -132.957
  N     -100.305     144.219    -134.186
  O      -99.292     150.276    -134.603
  O     -100.002     149.685    -132.220
  H     -100.670     144.408    -137.877
  H     -100.248     150.475    -134.615
  H     -103.889     141.127    -132.676
  H      -99.013     145.304    -132.840
  H      -99.564     143.715    -136.041
  H     -101.850     145.341    -136.071
  H     -104.554     140.635    -134.862
  H     -100.732     147.128    -134.842
  H     -103.657     141.300    -136.192
  H      -98.429     146.768    -136.854
  H      -97.070     147.389    -134.790
  H      -98.015     148.707    -135.529
  P     -102.102     148.708    -136.481
  C     -103.585     146.915    -137.636
  O     -103.268     147.608    -136.434
  O     -102.379     149.480    -137.858
  O     -102.026     149.640    -135.320
  H     -102.935     150.265    -137.693
  H     -104.376     146.219    -137.449
  H     -102.721     146.388    -137.982
  H     -103.897     147.617    -138.381

 6  7  8  9  10  11  12  13  14  15  26  29  33  34 0
 6-311+G(2d,p)
 ****
 36  38  39  40  41 0
 6-311+G(2d,p)
 ****
 1  2  3  4  5  16  17  18  19  20  21  22  23  24  25 0
 3-21G
 ****
 27  28  30  31  32  35  37  42  43  44  45  46  47 0
 3-21G
 ****
 48  49 0
 3-21G
 ****


