%nproc=1
%NoSave
%Mem=1900MB
#P OB98/GEN NMR

erre ene a

0 1
  C      429.997    -475.227     -49.017
  O      430.403    -473.865     -48.832
  P      431.591    -473.294     -49.747
  C      431.026    -470.898     -50.575
  O      431.635    -471.695     -49.576
  C      431.411    -469.420     -50.389
  O      430.960    -468.912     -49.111
  C      432.916    -469.180     -50.409
  O      433.408    -469.085     -51.740
  C      433.012    -467.834     -49.722
  O      432.687    -466.779     -50.658
  C      431.940    -467.946     -48.639
  N      434.720    -466.521     -44.654
  C      434.390    -465.826     -45.807
  N      434.864    -464.559     -45.907
  N      433.650    -466.319     -46.782
  C      433.228    -467.596     -46.525
  C      433.505    -468.398     -45.423
  C      434.331    -467.836     -44.381
  O      434.668    -468.402     -43.347
  N      432.906    -469.609     -45.548
  C      432.284    -469.566     -46.704
  N      432.456    -468.361     -47.351
  O      431.001    -473.476     -51.234
  O      432.896    -474.000     -49.589
  H      433.446    -466.711     -51.265
  H      431.734    -473.591     -51.868
  H      435.294    -466.092     -43.951
  H      431.677    -470.363     -47.113
  H      431.409    -466.987     -48.475
  H      434.028    -467.618     -49.342
  H      435.389    -464.099     -45.174
  H      433.460    -469.953     -49.827
  H      434.594    -464.021     -46.724
  H      430.946    -468.828     -51.194
  H      429.931    -470.989     -50.541
  H      431.333    -471.264     -51.559
  P      434.638    -470.036     -52.170
  C      433.902    -469.839     -54.659
  O      434.944    -469.708     -53.696
  O      433.943    -471.493     -52.220
  O      435.810    -470.010     -51.238
  H      434.608    -472.171     -51.958
  H      434.251    -469.410     -55.603
  H      433.015    -469.276     -54.335
  H      433.643    -470.884     -54.797
  H      429.202    -475.457     -48.339
  H      430.827    -475.875     -48.827
  H      429.660    -475.365     -50.023

 3  4  5  6  7  8  9  10  11  12  23  26  30  31 0
 6-311+G(2d,p)
 ****
 33  35  36  37  38 0
 6-311+G(2d,p)
 ****
 1  2  13  14  15  16  17  18  19  20  21  22  24  25 0
 3-21G
 ****
 27  28  29  32  34  39  40  41  42  43  44  45  46  47  48  49 0
 3-21G
 ****


