%nproc=1
%NoSave
%Mem=1900MB
#P OB98/GEN NMR

erre ene a

0 1
  C     -149.532     125.510     121.768
  O     -148.995     124.722     120.718
  P     -147.427     124.866     120.398
  C     -145.954     126.615     119.150
  O     -147.242     126.256     119.618
  C     -146.006     127.948     118.398
  O     -146.518     128.966     119.300
  C     -144.656     128.445     117.873
  O     -144.918     129.164     116.661
  C     -144.202     129.412     118.951
  O     -143.235     130.346     118.482
  C     -145.537     130.027     119.359
  N     -147.057     133.821     122.338
  C     -147.220     133.645     120.975
  N     -147.942     134.588     120.332
  N     -146.724     132.637     120.306
  C     -146.039     131.769     121.087
  C     -145.777     131.852     122.435
  C     -146.362     132.951     123.168
  O     -146.316     133.098     124.387
  N     -144.971     130.827     122.856
  C     -144.816     130.078     121.781
  N     -145.482     130.582     120.696
  O     -147.193     123.762     119.266
  O     -146.508     124.695     121.566
  H     -142.974     130.912     119.236
  H     -146.888     122.919     119.653
  H     -147.478     134.607     122.801
  H     -144.243     129.168     121.729
  H     -145.857     130.826     118.679
  H     -143.754     128.855     119.783
  H     -148.378     135.373     120.791
  H     -143.934     127.644     117.693
  H     -148.104     134.465     119.341
  H     -146.726     127.852     117.576
  H     -145.599     125.843     118.461
  H     -145.258     126.673     119.994
  P     -144.411     128.520     115.281
  C     -142.122     127.961     114.206
  O     -142.812     128.536     115.298
  O     -144.780     129.650     114.205
  O     -145.054     127.219     114.926
  H     -144.999     129.230     113.354
  H     -141.118     128.389     114.159
  H     -142.634     128.159     113.258
  H     -142.041     126.881     114.354
  H     -150.579     125.310     121.865
  H     -149.386     126.547     121.546
  H     -149.036     125.268     122.685

 3  4  5  6  7  8  9  10  11  12  23  26  30  31 0
 6-311+G(2d,p)
 ****
 33  35  36  37  38 0
 6-311+G(2d,p)
 ****
 1  2  13  14  15  16  17  18  19  20  21  22  24  25 0
 3-21G
 ****
 27  28  29  32  34  39  40  41  42  43  44  45  46  47  48  49 0
 3-21G
 ****


