%nproc=1
%NoSave
%Mem=1900MB
#P OB98/GEN NMR

erre ene a

0 1
  C     -300.923      53.251     -85.758
  O     -300.034      52.320     -86.345
  H     -301.936      52.847     -85.808
  H     -300.891      54.191     -86.316
  H     -300.670      53.433     -84.711
  P     -298.458      52.520     -86.150
  C     -297.965      50.614     -84.482
  O     -297.849      51.073     -85.823
  C     -297.867      49.086     -84.413
  O     -298.998      48.509     -85.137
  C     -296.585      48.515     -85.035
  O     -296.257      47.317     -84.320
  C     -297.043      48.185     -86.445
  O     -296.154      47.285     -87.079
  C     -298.453      47.659     -86.163
  N     -299.292      47.644     -87.369
  C     -299.058      46.613     -88.276
  O     -298.185      45.764     -88.115
  N     -299.841      46.615     -89.399
  C     -300.770      47.560     -89.721
  O     -301.410      47.536     -90.759
  C     -300.935      48.656     -88.750
  C     -300.207      48.647     -87.631
  O     -298.060      53.596     -85.192
  O     -297.910      52.803     -87.629
  H     -296.486      47.048     -87.964
  H     -297.124      53.379     -87.586
  H     -299.692      45.870     -90.056
  H     -301.652      49.425     -88.986
  H     -300.308      49.437     -86.895
  H     -298.413      46.633     -85.766
  H     -297.088      49.087     -87.057
  H     -295.745      49.213     -85.007
  H     -297.977      48.775     -83.364
  H     -298.937      50.942     -84.092
  H     -297.172      51.063     -83.874
  P     -294.782      47.016     -83.769
  C     -295.409      47.609     -81.338
  O     -294.881      46.622     -82.216
  O     -293.789      48.101     -84.060
  O     -294.350      45.649     -84.487
  H     -293.383      45.613     -84.575
  H     -295.423      47.227     -80.339
  H     -296.405      47.857     -81.638
  H     -294.796      48.485     -81.377

 6  7  8  9  10  11  12  13  14  15  16  26  31  32  33  34  35 0
 6-311+G(2d,p)
 ****
 36  37 0
 6-311+G(2d,p)
 ****
 1  2  3  4  5  17  18  19  20  21  22  23  24  25 0
 3-21G
 ****
 27  28  29  30  38  39  40  41  42  43  44  45 0
 3-21G
 ****


