%nproc=1
%NoSave
%Mem=1900MB
#P OB98/GEN NMR

erre ene a

0 1
  C       20.999     -73.742     -35.086
  O       19.775     -73.094     -35.368
  H       21.760     -73.362     -35.772
  H       20.904     -74.820     -35.230
  H       21.316     -73.528     -34.061
  P       18.471     -73.521     -34.541
  C       16.120     -72.529     -34.153
  O       17.433     -72.301     -34.653
  C       15.172     -71.426     -34.639
  O       15.681     -70.160     -34.150
  C       15.090     -71.354     -36.171
  O       13.752     -71.401     -36.662
  C       15.922     -70.123     -36.507
  O       15.573     -69.488     -37.720
  C       15.768     -69.247     -35.259
  N       16.862     -68.299     -35.062
  C       17.179     -67.461     -36.126
  O       16.598     -67.439     -37.209
  N       18.224     -66.598     -35.909
  C       18.962     -66.501     -34.768
  O       19.882     -65.704     -34.630
  C       18.593     -67.428     -33.688
  C       17.577     -68.272     -33.881
  O       18.715     -74.007     -33.153
  O       17.791     -74.653     -35.448
  H       16.059     -68.639     -37.763
  H       17.982     -75.531     -35.070
  H       18.455     -65.979     -36.669
  H       19.165     -67.385     -32.771
  H       17.276     -68.968     -33.104
  H       14.839     -68.677     -35.304
  H       16.971     -70.432     -36.599
  H       15.558     -72.233     -36.627
  H       14.186     -71.583     -34.186
  H       16.171     -72.531     -33.060
  H       15.760     -73.504     -34.496
  P       12.955     -72.743     -36.996
  C       10.421     -73.400     -36.856
  O       11.396     -72.391     -37.070
  O       13.341     -73.939     -36.194
  O       13.352     -73.037     -38.533
  H       13.362     -74.010     -38.636
  H        9.443     -72.976     -36.946
  H       10.543     -73.812     -35.876
  H       10.542     -74.174     -37.585

 6  7  8  9  10  11  12  13  14  15  16  26  31  32  33  34  35 0
 6-311+G(2d,p)
 ****
 36  37 0
 6-311+G(2d,p)
 ****
 1  2  3  4  5  17  18  19  20  21  22  23  24  25 0
 3-21G
 ****
 27  28  29  30  38  39  40  41  42  43  44  45 0
 3-21G
 ****


