%nproc=1
%NoSave
%Mem=1900MB
#P OB98/GEN NMR

erre ene a

0 1
  C      110.000    -687.989     164.987
  O      110.582    -689.272     164.849
  H      109.949    -687.518     164.001
  H      110.608    -687.355     165.639
  H      108.988    -688.072     165.391
  P      110.910    -690.103     166.180
  C      108.433    -690.361     166.874
  O      109.701    -689.800     167.186
  C      107.991    -691.309     167.987
  O      107.823    -690.583     169.222
  C      106.653    -691.978     167.708
  O      106.792    -693.012     166.757
  C      106.257    -692.417     169.107
  O      106.928    -693.625     169.481
  C      106.752    -691.222     169.956
  N      105.685    -690.270     170.263
  C      104.965    -690.517     171.434
  O      105.238    -691.485     172.146
  N      103.933    -689.669     171.760
  C      103.659    -688.659     170.993
  N      102.628    -687.859     171.371
  C      104.406    -688.360     169.759
  C      105.393    -689.197     169.455
  O      112.272    -689.913     166.774
  O      110.651    -691.624     165.748
  H      106.843    -694.227     168.717
  H      111.466    -692.021     165.390
  H      104.147    -687.500     169.153
  H      105.992    -689.045     168.564
  H      107.181    -691.575     170.901
  H      105.187    -692.597     169.181
  H      105.922    -691.234     167.368
  H      108.781    -692.055     168.139
  H      102.137    -688.111     172.221
  H      108.540    -690.910     165.930
  H      102.381    -687.004     170.901
  H      107.684    -689.574     166.733
  P      105.523    -693.532     165.925
  C      106.562    -692.430     163.834
  O      105.409    -692.538     164.667
  O      104.272    -693.713     166.713
  O      106.059    -694.886     165.260
  H      106.118    -695.617     165.922
  H      106.363    -691.744     163.037
  H      106.799    -693.391     163.427
  H      107.388    -692.074     164.413

 6  7  8  9  10  11  12  13  14  15  16  26  30  31  32  33  35 0
 6-311+G(2d,p)
 ****
 37  38 0
 6-311+G(2d,p)
 ****
 1  2  3  4  5  17  18  19  20  21  22  23  24  25 0
 3-21G
 ****
 27  28  29  34  36  39  40  41  42  43  44  45  46 0
 3-21G
 ****


