%nproc=1
%NoSave
%Mem=1900MB
#P OB98/GEN NMR

erre ene a

0 1
  C      195.915    -255.790    -397.662
  O      195.412    -255.875    -398.978
  P      195.746    -254.804    -400.116
  C      195.282    -252.766    -398.568
  O      194.949    -253.447    -399.775
  C      194.437    -251.503    -398.341
  O      194.749    -250.529    -399.359
  C      192.949    -251.830    -398.499
  O      192.223    -252.376    -397.414
  C      192.335    -250.585    -399.121
  O      191.707    -249.741    -398.153
  C      193.531    -249.876    -399.754
  N      191.057    -248.158    -403.833
  C      190.961    -247.745    -402.519
  N      189.936    -246.905    -402.240
  N      191.772    -248.141    -401.573
  C      192.679    -249.055    -401.989
  C      192.885    -249.526    -403.266
  C      192.007    -249.050    -404.309
  O      192.009    -249.456    -405.468
  N      193.849    -250.501    -403.300
  C      194.203    -250.649    -402.042
  N      193.493    -249.821    -401.204
  O      195.746    -255.298    -401.529
  O      197.264    -254.411    -399.744
  H      191.425    -248.924    -398.605
  H      197.734    -254.226    -400.580
  H      190.354    -247.878    -404.506
  H      194.938    -251.363    -401.681
  H      193.601    -248.841    -399.399
  H      191.552    -250.858    -399.839
  H      189.211    -246.695    -402.911
  H      192.874    -252.600    -399.277
  H      189.732    -246.719    -401.262
  H      194.690    -251.027    -397.387
  H      196.347    -252.514    -398.620
  H      195.152    -253.444    -397.720
  P      191.422    -253.762    -397.407
  C      190.018    -253.471    -399.525
  O      190.001    -253.526    -398.107
  O      191.025    -253.983    -395.870
  O      192.190    -254.934    -397.921
  H      190.855    -254.928    -395.708
  H      189.086    -253.016    -399.874
  H      190.087    -254.484    -399.928
  H      190.863    -252.876    -399.884
  H      195.554    -256.617    -397.088
  H      195.588    -254.875    -397.214
  H      196.984    -255.813    -397.687

 3  4  5  6  7  8  9  10  11  12  23  26  30  31 0
 6-311+G(2d,p)
 ****
 33  35  36  37  38 0
 6-311+G(2d,p)
 ****
 1  2  13  14  15  16  17  18  19  20  21  22  24  25 0
 3-21G
 ****
 27  28  29  32  34  39  40  41  42  43  44  45  46  47  48  49 0
 3-21G
 ****


