%nproc=1
%NoSave
%Mem=1900MB
#P OB98/GEN NMR

erre ene a

0 1
  C     -374.687      22.197     158.832
  O     -376.038      22.625     158.646
  P     -376.326      23.660     157.451
  C     -376.693      22.480     155.146
  O     -377.242      22.865     156.392
  C     -377.591      21.449     154.448
  O     -377.782      20.292     155.319
  C     -378.979      21.978     154.066
  O     -379.322      21.373     152.806
  C     -379.869      21.435     155.171
  O     -381.232      21.371     154.774
  C     -379.203      20.076     155.424
  N     -379.566      19.507     156.721
  C     -380.507      18.480     156.718
  O     -381.086      18.105     155.698
  N     -380.794      17.930     157.936
  C     -380.310      18.352     159.143
  O     -380.601      17.822     160.205
  C     -379.409      19.517     159.096
  C     -379.087      20.030     157.904
  O     -374.893      23.747     156.753
  O     -376.880      24.961     157.928
  H     -374.414      22.897     156.742
  H     -381.733      20.848     155.437
  H     -381.452      17.165     157.955
  H     -379.049      19.916     160.035
  H     -378.442      20.899     157.835
  H     -379.485      19.362     154.642
  H     -379.796      22.075     156.058
  H     -379.012      23.068     153.973
  H     -377.067      21.095     153.551
  H     -375.702      22.033     155.296
  H     -376.552      23.369     154.517
  P     -379.317      22.304     151.493
  C     -376.863      21.573     150.931
  O     -378.203      21.718     150.504
  O     -378.617      23.621     152.087
  O     -380.664      22.582     150.907
  H     -377.818      23.428     152.605
  H     -376.330      20.947     150.212
  H     -376.813      21.096     151.912
  H     -376.381      22.554     150.977
  H     -374.639      21.515     159.655
  H     -374.069      23.046     159.036
  H     -374.342      21.710     157.944

 3  4  5  6  7  8  9  10  11  12  13  24  28  29  30  31  32 0
 6-311+G(2d,p)
 ****
 33  34 0
 6-311+G(2d,p)
 ****
 1  2  14  15  16  17  18  19  20  21  22  23  25  26  27 0
 3-21G
 ****
 35  36  37  38  39  40  41  42  43  44  45 0
 3-21G
 ****


