%nproc=1
%NoSave
%Mem=1900MB
#P OB98/GEN NMR

erre ene a

0 1
  C       88.604    -269.414     130.507
  O       88.202    -268.083     130.177
  P       86.683    -267.798     129.763
  C       86.444    -265.735     131.304
  O       86.358    -266.244     129.978
  C       86.309    -264.209     131.289
  O       87.311    -263.596     130.442
  C       84.978    -263.736     130.718
  O       83.827    -263.989     131.493
  C       85.275    -262.290     130.361
  O       85.151    -261.433     131.496
  C       86.752    -262.378     129.907
  N       86.899    -262.319     128.453
  C       86.871    -261.049     127.886
  O       86.691    -260.022     128.537
  N       87.023    -260.999     126.526
  C       87.160    -262.071     125.695
  O       87.269    -261.971     124.481
  C       87.158    -263.389     126.350
  C       87.028    -263.453     127.676
  O       85.672    -268.743     130.320
  O       86.728    -267.918     128.160
  H       84.250    -261.546     131.851
  H       85.922    -268.390     127.874
  H       87.013    -260.086     126.099
  H       87.259    -264.264     125.721
  H       87.025    -264.414     128.178
  H       87.333    -261.552     130.334
  H       84.588    -261.914     129.599
  H       84.815    -264.267     129.769
  H       86.464    -263.835     132.304
  H       87.395    -266.027     131.752
  H       85.659    -266.196     131.913
  P       82.698    -265.047     131.074
  C       83.185    -266.543     133.136
  O       82.223    -265.828     132.392
  O       82.941    -265.859     129.847
  O       81.444    -264.076     130.802
  H       80.904    -264.466     130.089
  H       82.685    -267.022     133.981
  H       83.950    -265.865     133.521
  H       83.648    -267.316     132.519
  H       89.644    -269.421     130.757
  H       88.435    -270.056     129.668
  H       88.034    -269.762     131.343

 3  4  5  6  7  8  9  10  11  12  13  23  28  29  30  31  32 0
 6-311+G(2d,p)
 ****
 33  34 0
 6-311+G(2d,p)
 ****
 1  2  14  15  16  17  18  19  20  21  22  24  25  26  27 0
 3-21G
 ****
 35  36  37  38  39  40  41  42  43  44  45 0
 3-21G
 ****


