%nproc=1
%NoSave
%Mem=1900MB
#P OB98/GEN NMR

erre ene a

0 1
  C      128.173      43.152      51.768
  O      127.412      42.149      52.402
  H      129.231      42.894      51.852
  H      128.004      44.110      52.266
  H      127.918      43.239      50.708
  P      125.858      42.022      52.047
  C      123.642      43.133      52.767
  O      125.058      43.124      52.899
  C      122.972      43.881      53.920
  O      123.644      45.139      54.138
  C      121.504      44.208      53.633
  O      120.594      43.180      53.982
  C      121.285      45.450      54.492
  O      120.880      45.098      55.825
  C      122.664      46.119      54.508
  N      122.619      51.209      54.040
  C      122.321      50.438      55.148
  N      121.930      51.113      56.250
  N      122.389      49.133      55.155
  C      122.698      48.598      53.953
  C      122.993      49.258      52.782
  C      122.989      50.706      52.802
  O      123.260      51.434      51.853
  N      123.221      48.380      51.750
  C      122.977      47.197      52.279
  N      122.736      47.273      53.631
  O      125.423      40.653      52.763
  O      125.531      41.979      50.585
  H      121.613      44.605      56.243
  H      124.712      40.229      52.251
  H      122.577      52.210      54.103
  H      123.007      46.256      51.742
  H      122.926      46.468      55.514
  H      120.490      46.074      54.077
  H      121.778      52.107      56.275
  H      121.369      44.490      52.585
  H      121.522      50.580      57.022
  H      123.080      43.295      54.841
  H      123.325      42.090      52.763
  H      123.352      43.569      51.807
  P      119.177      43.055      53.254
  C      117.358      44.853      52.660
  O      118.336      44.375      53.558
  O      118.428      41.932      54.111
  O      119.230      42.709      51.802
  H      118.488      41.065      53.670
  H      116.917      45.744      53.055
  H      116.601      44.109      52.528
  H      117.815      45.069      51.717

 6  7  8  9  10  11  12  13  14  15  26  29  33  34 0
 6-311+G(2d,p)
 ****
 36  38  39  40  41 0
 6-311+G(2d,p)
 ****
 1  2  3  4  5  16  17  18  19  20  21  22  23  24  25 0
 3-21G
 ****
 27  28  30  31  32  35  37  42  43  44  45  46  47 0
 3-21G
 ****
 48  49 0
 3-21G
 ****


