%nproc=1
%NoSave
%Mem=1900MB
#P OB98/GEN NMR

erre ene a

0 1
  C     -170.729     562.460     308.093
  O     -170.894     561.642     306.959
  H     -171.095     563.471     307.892
  H     -171.321     562.040     308.917
  H     -169.679     562.489     308.391
  P     -170.147     562.111     305.615
  C     -172.333     563.383     305.028
  O     -170.910     563.423     305.071
  C     -172.853     564.530     304.183
  O     -172.250     564.422     302.845
  C     -174.399     564.548     303.992
  O     -174.924     565.798     304.459
  C     -174.614     564.464     302.494
  O     -175.655     565.318     302.020
  C     -173.251     564.873     301.909
  N     -172.807     565.934     296.953
  C     -172.648     566.701     298.048
  N     -172.670     566.334     299.343
  C     -172.863     565.010     299.456
  C     -173.021     564.086     298.438
  C     -173.008     564.591     297.122
  N     -173.234     563.804     296.006
  N     -173.227     562.812     298.943
  C     -173.216     562.971     300.251
  N     -173.032     564.282     300.611
  O     -170.549     560.978     304.554
  O     -168.664     562.249     305.738
  H     -175.453     566.217     302.350
  H     -169.741     560.671     304.086
  H     -172.485     567.764     297.850
  H     -173.380     562.197     300.998
  H     -173.159     565.972     301.817
  H     -174.852     563.432     302.222
  H     -174.888     563.718     304.505
  H     -172.513     565.476     304.600
  H     -172.736     563.474     306.040
  H     -173.314     564.281     295.121
  H     -173.482     562.838     296.135
  H     -172.641     562.407     304.625
  P     -175.772     565.761     305.824
  C     -178.014     565.272     304.586
  O     -177.059     564.844     305.566
  O     -176.381     567.237     305.911
  O     -174.959     565.416     307.030
  H     -176.544     567.476     306.847
  H     -178.810     564.560     304.529
  H     -177.536     565.349     303.632
  H     -178.408     566.227     304.865

 6  7  8  9  10  11  12  13  14  15  25  28  32  33  34  35 0
 6-311+G(2d,p)
 ****
 36  39  40 0
 6-311+G(2d,p)
 ****
 1  2  3  4  5  16  17  18  19  20  21  22  23  24 0
 3-21G
 ****
 26  27  29  30  31  37  38  41  42  43  44  45  46  47  48 0
 3-21G
 ****


