%nproc=1
%NoSave
%Mem=1900MB
#P OB98/GEN NMR

erre ene a

0 1
  C      137.064     226.822     -17.739
  O      135.674     226.510     -17.669
  P      135.197     225.375     -16.642
  C      135.329     223.331     -18.212
  O      135.873     223.983     -17.068
  C      135.864     221.892     -18.319
  O      137.316     221.932     -18.339
  C      135.492     220.975     -17.147
  O      134.272     220.244     -17.224
  C      136.621     219.948     -17.203
  O      136.312     218.937     -18.180
  C      137.825     220.760     -17.670
  N      141.883     219.387     -14.871
  C      141.249     218.782     -15.897
  N      140.172     219.214     -16.587
  C      139.764     220.409     -16.134
  C      140.314     221.147     -15.099
  C      141.426     220.589     -14.447
  N      142.067     221.199     -13.395
  N      139.617     222.323     -14.914
  C      138.651     222.285     -15.812
  N      138.705     221.157     -16.582
  O      133.732     225.321     -16.364
  O      136.013     225.752     -15.312
  H      135.454     218.554     -17.922
  H      135.445     225.581     -14.534
  H      141.653     217.821     -16.203
  H      137.897     223.048     -15.937
  H      138.442     220.214     -18.393
  H      136.759     219.430     -16.251
  H      135.534     221.521     -16.197
  H      135.520     221.450     -19.262
  H      135.596     223.889     -19.112
  H      142.830     220.711     -12.954
  H      141.704     222.069     -13.028
  H      134.243     223.368     -18.126
  P      132.980     220.683     -16.386
  C      133.510     218.980     -14.472
  O      133.313     220.322     -14.860
  O      131.687     220.138     -16.885
  O      133.080     222.279     -16.407
  H      133.823     222.643     -15.897
  H      133.931     218.966     -13.462
  H      134.200     218.476     -15.151
  H      132.549     218.454     -14.460
  H      137.220     227.593     -18.465
  H      137.612     225.948     -18.023
  H      137.402     227.159     -16.782

 3  4  5  6  7  8  9  10  11  12  22  25  29  30  31  32 0
 6-311+G(2d,p)
 ****
 33  36  37 0
 6-311+G(2d,p)
 ****
 1  2  13  14  15  16  17  18  19  20  21  23  24  26 0
 3-21G
 ****
 27  28  34  35  38  39  40  41  42  43  44  45  46  47  48 0
 3-21G
 ****


