%nproc=1
%NoSave
%Mem=1900MB
#P OB98/GEN NMR

erre ene a

0 1
  C       -4.370    -113.053     -79.280
  O       -5.600    -113.617     -78.851
  P       -5.867    -115.164     -79.181
  C       -6.532    -114.772     -81.650
  O       -6.956    -115.196     -80.361
  C       -7.599    -115.068     -82.697
  O       -7.137    -114.584     -83.988
  C       -7.931    -116.561     -82.856
  O       -9.352    -116.720     -82.962
  C       -7.326    -116.917     -84.202
  O       -7.979    -118.029     -84.804
  C       -7.507    -115.595     -84.947
  N       -7.126    -117.033     -89.772
  C       -8.189    -117.146     -88.900
  N       -9.285    -117.785     -89.366
  N       -8.181    -116.680     -87.679
  C       -7.031    -116.037     -87.358
  C       -5.913    -115.852     -88.138
  C       -5.915    -116.427     -89.466
  O       -4.972    -116.439     -90.254
  N       -4.953    -115.136     -87.470
  C       -5.486    -114.890     -86.289
  N       -6.727    -115.459     -86.155
  O       -6.681    -115.667     -77.898
  O       -4.647    -115.988     -79.404
  H       -7.604    -118.835     -84.400
  H       -6.223    -116.429     -77.494
  H       -7.180    -117.425     -90.695
  H       -5.001    -114.339     -85.493
  H       -8.562    -115.445     -85.211
  H       -6.268    -117.164     -84.068
  H       -9.372    -118.135     -90.306
  H       -7.547    -117.194     -82.049
  H      -10.084    -117.857     -88.748
  H       -8.501    -114.497     -82.447
  H       -5.611    -115.299     -81.916
  H       -6.325    -113.697     -81.617
  P       -9.966    -118.034     -82.271
  C       -9.598    -119.804     -84.145
  O      -10.499    -118.948     -83.472
  O      -11.303    -117.496     -81.577
  O       -9.044    -118.697     -81.303
  H      -11.554    -118.072     -80.831
  H       -8.628    -119.861     -83.642
  H       -9.446    -119.433     -85.161
  H      -10.029    -120.807     -84.194
  H       -4.331    -112.023     -78.993
  H       -4.294    -113.130     -80.345
  H       -3.558    -113.581     -78.826

 3  4  5  6  7  8  9  10  11  12  23  26  30  31  33  0
 6-311+G(2d,p)
 ****
 35  36  37  38 0
 6-311+G(2d,p)
 ****
 1  2  13  14  15  16  17  18  19  20  21  22  24  25  27  28  29 0
 3-21G
 ****
 32  34  39  40  41  42  43  44  45  46  47  48  49 0
 3-21G
 ****


