%nproc=1
%NoSave
%Mem=1900MB
#P OB98/GEN NMR

erre ene a

0 1
  C      199.902     120.308     285.674
  O      200.012     121.709     285.853
  H      198.890     120.079     285.328
  H      200.078     119.790     286.622
  H      200.617     119.971     284.920
  P      201.420     122.253     286.397
  C      201.311     122.961     288.886
  O      201.414     121.887     287.960
  C      199.875     123.478     288.950
  O      198.949     122.377     288.965
  C      199.562     124.317     290.185
  O      199.974     125.660     289.987
  C      198.044     124.203     290.236
  O      197.459     125.136     289.304
  C      197.796     122.761     289.758
  N      195.254     121.597     294.068
  C      195.330     122.745     293.353
  N      196.070     122.999     292.252
  C      196.775     121.910     291.887
  C      196.795     120.678     292.520
  C      195.984     120.537     293.659
  N      195.909     119.367     294.387
  N      197.639     119.804     291.863
  C      198.071     120.481     290.819
  N      197.604     121.774     290.807
  O      201.743     123.669     286.053
  O      202.425     121.161     285.792
  H      197.875     124.965     288.438
  H      202.041     120.269     285.862
  H      194.723     123.567     293.721
  H      198.703     120.082     290.034
  H      196.915     122.697     289.108
  H      197.638     124.438     291.222
  H      199.985     123.876     291.094
  H      199.683     124.050     288.030
  H      201.986     123.776     288.596
  H      195.461     119.412     295.290
  H      196.553     118.623     294.155
  H      201.624     122.585     289.866
  P      200.510     126.548     291.213
  C      198.877     128.482     291.666
  O      199.187     127.117     291.923
  O      201.535     127.561     290.840
  O      201.051     125.476     292.273
  H      201.629     125.915     292.927
  H      197.981     128.749     292.187
  H      198.733     128.623     290.615
  H      199.683     129.100     292.002

 6  7  8  9  10  11  12  13  14  15  25  28  32  33  34  35 0
 6-311+G(2d,p)
 ****
 36  39  40 0
 6-311+G(2d,p)
 ****
 1  2  3  4  5  16  17  18  19  20  21  22  23  24 0
 3-21G
 ****
 26  27  29  30  31  37  38  41  42  43  44  45  46  47 0
 3-21G
 ****
 48 0
 3-21G
 ****


