%nproc=1
%NoSave
%Mem=1900MB
#P OB98/GEN NMR

erre ene a

0 1
  C      -95.563     127.795     408.762
  O      -96.637     128.713     408.754
  H      -95.686     127.104     407.925
  H      -95.557     127.223     409.695
  H      -94.616     128.328     408.644
  P      -96.675     129.788     409.947
  C      -97.553     129.744     412.368
  O      -97.414     129.024     411.151
  C      -97.782     128.780     413.533
  O      -99.059     128.118     413.342
  C      -96.708     127.690     413.648
  O      -96.478     127.409     415.033
  C      -97.367     126.489     412.995
  O      -96.798     125.258     413.433
  C      -98.826     126.700     413.395
  N     -100.292     122.071     411.849
  C      -99.505     122.481     412.869
  N      -99.188     123.742     413.225
  C      -99.819     124.631     412.435
  C     -100.647     124.367     411.361
  C     -100.873     123.013     411.065
  N     -101.641     122.585     410.007
  N     -101.064     125.549     410.772
  C     -100.502     126.505     411.488
  N      -99.725     125.998     412.492
  O      -97.242     131.121     409.596
  O      -95.150     129.797     410.430
  H      -97.052     125.115     414.371
  H      -94.799     128.891     410.528
  H      -99.069     121.688     413.476
  H     -100.613     127.572     411.313
  H      -99.044     126.347     414.410
  H      -97.249     126.546     411.908
  H      -95.771     127.961     413.162
  H      -97.860     129.361     414.462
  H      -98.396     130.441     412.300
  H     -101.752     121.594     409.869
  H     -102.088     123.269     409.412
  H      -96.634     130.323     412.525
  P      -95.034     126.885     415.488
  C      -93.786     124.632     415.647
  O      -94.905     125.325     415.113
  O      -94.630     127.232     416.881
  O      -94.054     127.573     414.420
  H      -93.255     127.896     414.880
  H      -93.813     123.611     415.328
  H      -93.818     124.673     416.716
  H      -92.884     125.090     415.300

 6  7  8  9  10  11  12  13  14  15  25  28  32  33  34  35 0
 6-311+G(2d,p)
 ****
 36  39  40 0
 6-311+G(2d,p)
 ****
 1  2  3  4  5  16  17  18  19  20  21  22  23  24 0
 3-21G
 ****
 26  27  29  30  31  37  38  41  42  43  44  45  46  47 0
 3-21G
 ****
 48 0
 3-21G
 ****


