%nproc=1
%NoSave
%Mem=1900MB
#P OB98/GEN NMR

erre ene a

0 1
  C     -231.611    -232.260     169.560
  O     -232.540    -233.177     170.097
  H     -231.760    -231.289     170.040
  H     -231.773    -232.146     168.486
  H     -230.585    -232.587     169.749
  P     -232.417    -234.723     169.699
  C     -232.814    -235.365     172.169
  O     -233.208    -235.554     170.819
  C     -233.797    -236.051     173.124
  O     -234.985    -235.211     173.249
  C     -234.274    -237.439     172.651
  O     -234.553    -238.210     173.828
  C     -235.550    -237.068     171.917
  O     -236.342    -238.186     171.606
  C     -236.117    -236.039     172.905
  N     -237.216    -235.226     172.400
  C     -238.497    -235.509     172.864
  O     -238.767    -236.394     173.674
  N     -239.499    -234.725     172.355
  C     -239.349    -233.704     171.464
  O     -240.282    -233.016     171.068
  C     -237.973    -233.459     171.005
  C     -236.985    -234.214     171.490
  O     -231.037    -235.211     169.408
  O     -233.371    -234.859     168.418
  H     -232.829    -234.877     167.607
  H     -237.142    -237.889     171.121
  H     -240.434    -234.913     172.685
  H     -237.821    -232.663     170.289
  H     -235.960    -234.049     171.177
  H     -236.438    -236.543     173.824
  H     -235.308    -236.599     170.961
  H     -233.533    -237.961     172.039
  H     -233.342    -236.109     174.119
  H     -232.793    -234.289     172.372
  H     -231.808    -235.772     172.309
  P     -234.081    -239.732     174.020
  C     -231.533    -239.401     174.347
  O     -232.777    -239.735     174.957
  O     -233.899    -240.477     172.738
  O     -235.208    -240.414     174.929
  H     -235.232    -241.373     174.754
  H     -230.754    -239.442     175.080
  H     -231.589    -238.413     173.940
  H     -231.322    -240.098     173.563

 6  7  8  9  10  11  12  13  14  15  16  27  31  32  33  34  35 0
 6-311+G(2d,p)
 ****
 36  37 0
 6-311+G(2d,p)
 ****
 1  2  3  4  5  17  18  19  20  21  22  23  24  25 0
 3-21G
 ****
 26  28  29  30  38  39  40  41  42  43  44  45 0
 3-21G
 ****


