%nproc=1
%NoSave
%Mem=1900MB
#P OB98/GEN NMR

erre ene a

0 1
  C      267.900     456.898      87.775
  O      269.293     456.634      87.769
  H      267.743     457.950      87.516
  H      267.486     456.722      88.773
  H      267.381     456.275      87.046
  P      269.793     455.126      87.971
  C      269.231     453.166      89.554
  O      269.007     454.534      89.234
  C      269.780     453.056      90.987
  O      268.967     453.815      91.892
  C      269.810     451.624      91.517
  O      270.880     450.891      90.961
  C      269.919     451.887      93.012
  O      271.277     452.174      93.383
  C      269.022     453.142      93.183
  N      267.683     452.823      93.673
  C      267.605     452.279      94.953
  O      268.597     452.042      95.652
  N      266.339     451.993      95.412
  C      265.191     452.079      94.678
  O      264.095     451.727      95.098
  C      265.332     452.633      93.326
  C      266.551     452.965      92.893
  O      271.274     454.937      88.008
  O      269.134     454.343      86.739
  H      271.742     451.314      93.410
  H      269.818     454.150      86.070
  H      266.270     451.591      96.325
  H      264.439     452.729      92.712
  H      266.678     453.380      91.885
  H      269.487     453.849      93.880
  H      269.599     451.034      93.610
  H      268.851     451.137      91.322
  H      270.793     453.486      90.990
  H      269.952     452.756      88.851
  H      268.283     452.614      89.465
  P      270.657     449.363      90.539
  C      269.764     447.209      91.628
  O      270.090     448.579      91.820
  O      271.822     448.702      89.847
  O      269.385     449.419      89.571
  H      269.631     449.077      88.680
  H      269.399     446.797      92.546
  H      270.638     446.674      91.320
  H      269.009     447.124      90.874

 6  7  8  9  10  11  12  13  14  15  16  26  31  32  33  34  35 0
 6-311+G(2d,p)
 ****
 36  37 0
 6-311+G(2d,p)
 ****
 1  2  3  4  5  17  18  19  20  21  22  23  24  25 0
 3-21G
 ****
 27  28  29  30  38  39  40  41  42  43  44  45 0
 3-21G
 ****


