%nproc=1
%NoSave
%Mem=1900MB
#P OB98/GEN NMR

erre ene a

0 1
  C       86.885     105.836     -59.197
  O       87.264     107.115     -58.728
  H       87.763     105.186     -59.193
  H       86.504     105.908     -60.220
  H       86.122     105.404     -58.543
  P       86.110     108.230     -58.682
  C       87.432     109.766     -60.300
  O       86.230     109.051     -60.057
  C       87.269     110.687     -61.505
  O       87.090     109.918     -62.716
  C       86.082     111.638     -61.414
  O       86.403     112.786     -60.648
  C       85.845     111.958     -62.883
  O       86.757     112.970     -63.357
  C       86.128     110.608     -63.556
  N       81.604     110.360     -65.782
  C       82.580     111.331     -65.855
  N       82.284     112.425     -66.591
  N       83.737     111.246     -65.255
  C       83.879     110.111     -64.529
  C       82.993     109.068     -64.391
  C       81.728     109.163     -65.087
  O       80.848     108.309     -65.115
  N       83.506     108.085     -63.586
  C       84.681     108.549     -63.208
  N       84.946     109.783     -63.741
  O       86.641     109.272     -57.587
  O       84.748     107.727     -58.347
  H       86.633     113.090     -64.314
  H       85.876     109.680     -57.139
  H       80.740     110.475     -66.281
  H       85.371     108.033     -62.555
  H       86.586     110.728     -64.544
  H       84.838     112.343     -63.055
  H       81.328     112.690     -66.785
  H       85.202     111.124     -61.008
  H       82.986     113.152     -66.632
  H       88.204     111.251     -61.616
  H       88.237     109.051     -60.501
  H       87.689     110.352     -59.412
  P       85.208     113.793     -60.276
  C       86.480     115.786     -61.361
  O       85.294     115.004     -61.324
  O       85.699     114.459     -58.906
  O       83.870     113.148     -60.141
  H       84.945     114.877     -58.449
  H       86.382     116.548     -62.106
  H       87.313     115.159     -61.600
  H       86.638     116.240     -60.405

 6  7  8  9  10  11  12  13  14  15  26  29  33  34 0
 6-311+G(2d,p)
 ****
 36  38  39  40  41 0
 6-311+G(2d,p)
 ****
 1  2  3  4  5  16  17  18  19  20  21  22  23  24  25 0
 3-21G
 ****
 27  28  30  31  32  35  37  42  43  44  45  46  47 0
 3-21G
 ****
 48  49 0
 3-21G
 ****


