%nproc=1
%NoSave
%Mem=1900MB
#P OB98/GEN NMR

erre ene a

0 1
  C     -200.653     105.281     468.991
  O     -200.897     106.652     469.296
  P     -201.970     107.451     468.408
  C     -202.872     109.184     470.125
  O     -202.095     108.949     468.958
  C     -202.771     110.655     470.559
  O     -201.446     110.952     471.081
  C     -202.993     111.646     469.429
  O     -204.373     111.860     469.192
  C     -202.349     112.909     470.018
  O     -203.256     113.529     470.941
  C     -201.145     112.338     470.763
  N     -196.600     114.670     470.216
  C     -197.647     114.895     471.050
  N     -198.826     114.236     471.136
  C     -198.874     113.243     470.218
  C     -197.903     112.904     469.301
  C     -196.715     113.670     469.316
  N     -195.673     113.418     468.447
  N     -198.320     111.847     468.516
  C     -199.516     111.537     468.978
  N     -199.899     112.372     470.005
  O     -203.360     106.788     468.849
  O     -201.741     107.329     466.931
  H     -204.106     113.652     470.465
  H     -203.969     106.748     468.073
  H     -197.492     115.708     471.757
  H     -200.145     110.740     468.611
  H     -200.951     112.859     471.720
  H     -202.106     113.647     469.255
  H     -202.444     111.347     468.522
  H     -203.505     110.822     471.356
  H     -202.543     108.519     470.944
  H     -194.842     113.999     468.536
  H     -195.735     112.660     467.784
  H     -203.918     108.917     469.917
  P     -204.835     112.012     467.667
  C     -206.783     110.314     468.046
  O     -206.399     111.628     467.654
  O     -204.125     110.768     466.953
  O     -204.478     113.314     467.030
  H     -203.922     110.998     466.016
  H     -207.856     110.322     468.267
  H     -206.247     110.016     468.953
  H     -206.592     109.601     467.238
  H     -199.919     104.891     469.665
  H     -200.295     105.197     467.986
  H     -201.562     104.726     469.093

 3  4  5  6  7  8  9  10  11  12  22  25  29  30  31  32 0
 6-311+G(2d,p)
 ****
 33  36  37 0
 6-311+G(2d,p)
 ****
 1  2  13  14  15  16  17  18  19  20  21  23  24  26 0
 3-21G
 ****
 27  28  34  35  38  39  40  41  42  43  44  45  46  47  48 0
 3-21G
 ****


