%nproc=1
%NoSave
%Mem=1900MB
#P OB98/GEN NMR

erre ene a

0 1
  C       79.494    -166.360     -43.249
  O       79.811    -166.335     -41.873
  H       79.550    -165.341     -43.639
  H       78.482    -166.741     -43.406
  H       80.212    -166.980     -43.793
  P       79.689    -167.697     -41.036
  C       81.122    -169.686     -41.859
  O       81.100    -168.444     -41.170
  C       82.171    -170.626     -41.255
  O       83.483    -170.009     -41.374
  C       81.948    -170.932     -39.764
  O       82.464    -172.242     -39.512
  C       82.819    -169.877     -39.109
  O       83.036    -170.160     -37.748
  C       84.032    -169.905     -40.042
  N       84.880    -168.732     -39.892
  C       85.714    -168.712     -38.769
  O       85.699    -169.648     -37.968
  N       86.523    -167.623     -38.569
  C       86.456    -166.612     -39.375
  N       87.273    -165.558     -39.111
  C       85.545    -166.566     -40.538
  C       84.797    -167.653     -40.739
  O       78.499    -168.545     -41.346
  O       79.679    -167.214     -39.510
  H       83.407    -171.063     -37.632
  H       78.774    -167.276     -39.152
  H       85.512    -165.692     -41.169
  H       84.096    -167.711     -41.566
  H       84.642    -170.800     -39.867
  H       82.333    -168.896     -39.149
  H       80.897    -170.876     -39.471
  H       82.200    -171.551     -41.848
  H       87.873    -165.628     -38.298
  H       81.366    -169.479     -42.906
  H       87.291    -164.710     -39.657
  H       80.136    -170.160     -41.816
  P       81.524    -173.528     -39.324
  C       79.478    -174.182     -40.759
  O       80.879    -173.927     -40.738
  O       80.526    -173.396     -38.217
  O       82.532    -174.739     -39.023
  H       82.089    -175.387     -38.445
  H       79.176    -174.435     -41.754
  H       78.951    -173.307     -40.439
  H       79.253    -174.995     -40.100

 6  7  8  9  10  11  12  13  14  15  16  26  30  31  32  33  35 0
 6-311+G(2d,p)
 ****
 37  38 0
 6-311+G(2d,p)
 ****
 1  2  3  4  5  17  18  19  20  21  22  23  24  25 0
 3-21G
 ****
 27  28  29  34  36  39  40  41  42  43  44  45  46 0
 3-21G
 ****


