%nproc=1
%NoSave
%Mem=1900MB
#P OB98/GEN NMR

erre ene a

0 1
  C     -348.436    -113.722     -18.151
  O     -349.615    -113.777     -18.927
  H     -347.809    -112.909     -18.523
  H     -347.882    -114.659     -18.242
  H     -348.670    -113.530     -17.100
  P     -350.800    -114.751     -18.465
  C     -352.250    -113.010     -17.234
  O     -351.399    -114.142     -17.109
  C     -353.594    -113.296     -16.573
  O     -354.383    -112.088     -16.507
  C     -354.452    -114.309     -17.323
  O     -353.979    -115.625     -17.113
  C     -355.821    -114.017     -16.726
  O     -355.963    -114.647     -15.444
  C     -355.772    -112.477     -16.582
  N     -356.454    -111.776     -17.669
  C     -357.797    -112.090     -17.861
  O     -358.389    -112.935     -17.195
  N     -358.430    -111.407     -18.866
  C     -357.845    -110.527     -19.729
  O     -358.447    -109.982     -20.649
  C     -356.417    -110.261     -19.500
  C     -355.798    -110.886     -18.496
  O     -350.462    -116.204     -18.404
  O     -351.960    -114.462     -19.531
  H     -355.283    -114.252     -14.861
  H     -351.970    -115.166     -20.206
  H     -359.398    -111.629     -19.028
  H     -355.919    -109.573     -20.168
  H     -354.744    -110.707     -18.315
  H     -356.236    -112.170     -15.636
  H     -356.638    -114.383     -17.347
  H     -354.478    -114.067     -18.391
  H     -353.406    -113.632     -15.545
  H     -352.402    -112.802     -18.299
  H     -351.764    -112.148     -16.768
  P     -354.735    -116.879     -17.758
  C     -352.909    -117.594     -19.405
  O     -354.210    -117.037     -19.268
  O     -356.220    -116.870     -17.614
  O     -354.092    -118.141     -17.017
  H     -354.729    -118.508     -16.372
  H     -352.655    -117.656     -20.443
  H     -352.893    -118.573     -18.975
  H     -352.200    -116.971     -18.901

 6  7  8  9  10  11  12  13  14  15  16  26  31  32  33  34  35 0
 6-311+G(2d,p)
 ****
 36  37 0
 6-311+G(2d,p)
 ****
 1  2  3  4  5  17  18  19  20  21  22  23  24  25 0
 3-21G
 ****
 27  28  29  30  38  39  40  41  42  43  44  45 0
 3-21G
 ****


