%nproc=1
%NoSave
%Mem=1900MB
#P OB98/GEN NMR

erre ene a

0 1
  C     -446.102    -493.013     260.471
  O     -447.019    -492.189     261.165
  P     -447.583    -492.622     262.594
  C     -449.586    -493.865     261.584
  O     -449.175    -492.816     262.454
  C     -451.103    -494.061     261.622
  O     -451.494    -494.469     262.965
  C     -451.923    -492.806     261.274
  O     -453.106    -493.261     260.605
  C     -452.295    -492.251     262.645
  O     -453.417    -491.387     262.609
  C     -452.521    -493.559     263.404
  N     -454.894    -491.724     267.552
  C     -455.222    -491.695     266.240
  N     -454.523    -492.179     265.191
  C     -453.385    -492.752     265.613
  C     -452.902    -492.831     266.907
  C     -453.728    -492.304     267.917
  N     -453.424    -492.357     269.259
  N     -451.658    -493.446     266.927
  C     -451.397    -493.724     265.667
  N     -452.440    -493.378     264.839
  O     -447.165    -491.755     263.735
  O     -447.054    -494.121     262.788
  H     -453.591    -491.052     263.505
  H     -446.327    -494.137     263.441
  H     -456.164    -491.224     266.006
  H     -450.481    -494.166     265.293
  H     -453.498    -494.011     263.176
  H     -451.451    -491.695     263.058
  H     -451.383    -492.079     260.664
  H     -451.355    -494.883     260.953
  H     -449.095    -494.786     261.917
  H     -454.140    -492.065     269.905
  H     -452.706    -493.003     269.572
  H     -449.257    -493.651     260.560
  P     -453.192    -493.190     259.002
  C     -455.546    -492.165     259.075
  O     -454.746    -493.245     258.627
  O     -452.310    -494.144     258.273
  O     -452.808    -491.657     258.677
  H     -452.563    -491.577     257.736
  H     -455.797    -492.310     260.133
  H     -456.467    -492.137     258.487
  H     -455.014    -491.213     258.959
  H     -445.844    -492.554     259.539
  H     -446.549    -493.968     260.287
  H     -445.219    -493.141     261.062

 3  4  5  6  7  8  9  10  11  12  22  25  29  30  31  32 0
 6-311+G(2d,p)
 ****
 33  36  37 0
 6-311+G(2d,p)
 ****
 1  2  13  14  15  16  17  18  19  20  21  23  24  26 0
 3-21G
 ****
 27  28  34  35  38  39  40  41  42  43  44  45  46  47  48 0
 3-21G
 ****


