%nproc=1
%NoSave
%Mem=1900MB
#P OB98/GEN NMR

erre ene a

0 1
  C      178.130      43.480    -178.050
  O      178.850      44.636    -178.484
  P      179.182      45.729    -177.356
  C      181.317      44.946    -176.106
  O      180.772      45.750    -177.142
  C      182.436      45.692    -175.376
  O      182.887      44.990    -174.202
  C      183.674      45.911    -176.233
  O      183.473      47.008    -177.107
  C      184.740      46.174    -175.177
  O      184.737      47.554    -174.761
  C      184.300      45.263    -174.019
  N      187.546      42.582    -171.196
  C      187.135      43.895    -171.067
  N      187.641      44.584    -170.023
  N      186.300      44.478    -171.888
  C      185.873      43.670    -172.885
  C      186.186      42.348    -173.101
  C      187.113      41.715    -172.189
  O      187.490      40.550    -172.247
  N      185.507      41.842    -174.181
  C      184.886      42.892    -174.687
  N      185.023      44.010    -173.901
  O      178.618      45.060    -176.017
  O      178.554      47.058    -177.614
  H      185.473      47.701    -174.140
  H      177.829      45.544    -175.712
  H      188.198      42.187    -170.542
  H      184.307      42.890    -175.597
  H      184.406      45.767    -173.050
  H      185.745      45.969    -175.554
  H      188.287      44.196    -169.351
  H      183.915      44.997    -176.790
  H      187.347      45.545    -169.905
  H      182.031      46.661    -175.055
  H      181.704      44.014    -176.520
  H      180.513      44.673    -175.413
  P      184.358      47.075    -178.440
  C      182.665      46.513    -180.325
  O      183.391      47.513    -179.637
  O      184.675      45.534    -178.743
  O      185.617      47.868    -178.310
  H      185.614      45.436    -178.988
  H      181.732      46.946    -180.695
  H      182.430      45.665    -179.676
  H      183.255      46.162    -181.176
  H      177.968      42.827    -178.882
  H      177.187      43.779    -177.642
  H      178.696      42.968    -177.300

 3  4  5  6  7  8  9  10  11  12  23  26  30  31 0
 6-311+G(2d,p)
 ****
 33  35  36  37  38 0
 6-311+G(2d,p)
 ****
 1  2  13  14  15  16  17  18  19  20  21  22  24  25 0
 3-21G
 ****
 27  28  29  32  34  39  40  41  42  43  44  45  46  47  48  49 0
 3-21G
 ****


