%nproc=1
%NoSave
%Mem=1900MB
#P OB98/GEN NMR

erre ene a

0 1
  C      234.299     358.126     214.378
  O      233.530     357.714     213.250
  P      233.463     356.224     212.686
  C      230.856     355.971     212.852
  O      232.027     355.997     212.028
  C      229.608     356.518     212.138
  O      229.643     357.968     212.150
  C      229.604     356.092     210.669
  O      229.114     354.815     210.296
  C      228.929     357.254     209.935
  O      227.531     357.044     209.755
  C      229.182     358.440     210.860
  N      229.988     362.445     207.779
  C      228.821     361.732     207.985
  N      227.749     362.089     207.253
  N      228.738     360.741     208.835
  C      229.903     360.428     209.445
  C      231.123     361.049     209.298
  C      231.204     362.188     208.400
  O      232.196     362.861     208.177
  N      232.089     360.447     210.053
  C      231.471     359.439     210.632
  N      230.131     359.399     210.297
  O      233.970     355.169     213.611
  O      234.455     356.270     211.416
  H      227.183     357.778     209.214
  H      234.870     355.379     211.347
  H      229.996     363.215     207.130
  H      231.925     358.723     211.305
  H      228.260     359.003     211.048
  H      229.355     357.369     208.928
  H      227.785     362.764     206.507
  H      230.648     356.097     210.327
  H      226.970     361.433     207.252
  H      228.699     356.235     212.675
  H      231.082     356.576     213.741
  H      230.664     354.956     213.201
  P      229.234     354.139     208.852
  C      230.301     351.927     209.557
  O      229.149     352.552     209.033
  O      230.770     354.359     208.441
  O      228.313     354.703     207.810
  H      230.886     354.223     207.477
  H      230.253     350.855     209.364
  H      230.341     352.082     210.641
  H      231.214     352.327     209.110
  H      234.163     359.175     214.538
  H      235.334     357.924     214.197
  H      233.977     357.588     215.245

 3  4  5  6  7  8  9  10  11  12  23  26  30  31 0
 6-311+G(2d,p)
 ****
 33  35  36  37  38 0
 6-311+G(2d,p)
 ****
 1  2  13  14  15  16  17  18  19  20  21  22  24  25 0
 3-21G
 ****
 27  28  29  32  34  39  40  41  42  43  44  45  46  47  48  49 0
 3-21G
 ****


