%nproc=1
%NoSave
%Mem=1900MB
#P OB98/GEN NMR

erre ene a

0 1
  C      -46.889    1275.311    1549.763
  O      -47.152    1275.160    1548.382
  H      -46.182    1274.528    1550.063
  H      -47.802    1275.204    1550.329
  H      -46.431    1276.281    1549.947
  P      -48.236    1276.138    1547.731
  C      -49.851    1274.156    1547.231
  O      -49.096    1275.257    1546.708
  C      -51.075    1273.930    1546.317
  O      -51.915    1275.082    1546.324
  C      -50.731    1273.641    1544.863
  O      -50.279    1272.297    1544.639
  C      -52.054    1273.946    1544.188
  O      -52.931    1272.780    1544.226
  C      -52.640    1275.089    1545.057
  N      -52.527    1276.370    1544.373
  C      -53.635    1276.827    1543.683
  O      -54.694    1276.169    1543.666
  N      -53.552    1277.995    1543.008
  C      -52.418    1278.750    1542.910
  O      -52.349    1279.782    1542.217
  C      -51.202    1278.250    1543.606
  C      -51.322    1277.080    1544.309
  O      -47.369    1277.094    1546.771
  O      -49.047    1276.931    1548.707
  H      -47.302    1277.983    1547.179
  H      -53.102    1272.620    1545.195
  H      -54.345    1278.312    1542.528
  H      -50.294    1278.790    1543.533
  H      -50.452    1276.695    1544.824
  H      -53.698    1274.918    1545.276
  H      -51.922    1274.193    1543.142
  H      -49.980    1274.383    1544.513
  H      -51.638    1273.049    1546.745
  H      -50.203    1274.376    1548.237
  H      -49.204    1273.272    1547.250
  P      -48.730    1272.096    1544.195
  C      -49.544    1271.946    1541.682
  O      -48.779    1271.371    1542.772
  O      -48.325    1270.955    1545.236
  O      -47.944    1273.358    1544.314
  H      -49.095    1270.378    1545.497
  H      -49.456    1271.323    1540.817
  H      -49.167    1272.922    1541.458
  H      -50.573    1272.018    1541.967

 6  7  8  9  10  11  12  13  14  15  16  27  31  32  33  34  35 0
 6-311+G(2d,p)
 ****
 36  37 0
 6-311+G(2d,p)
 ****
 1  2  3  4  5  17  18  19  20  21  22  23  24  25 0
 3-21G
 ****
 26  28  29  30  38  39  40  41  42  43  44  45 0
 3-21G
 ****


