%nproc=1
%NoSave
%Mem=1900MB
#P OB98/GEN NMR

erre ene a

0 1
  C       34.477      79.104    -116.941
  O       34.720      78.027    -116.048
  P       34.366      78.257    -114.498
  C       32.182      76.857    -114.505
  O       33.526      76.964    -114.052
  C       31.690      75.421    -114.386
  O       32.399      74.584    -115.317
  C       31.911      74.787    -113.021
  O       30.911      75.172    -112.089
  C       31.801      73.308    -113.362
  O       30.414      72.927    -113.424
  C       32.437      73.245    -114.761
  N       35.570      69.479    -116.041
  C       34.206      69.600    -116.228
  N       33.597      68.580    -116.871
  N       33.505      70.623    -115.818
  C       34.254      71.582    -115.228
  C       35.610      71.579    -114.983
  C       36.366      70.416    -115.395
  O       37.563      70.226    -115.198
  N       36.010      72.740    -114.374
  C       34.910      73.459    -114.283
  N       33.811      72.787    -114.760
  O       33.261      79.414    -114.547
  O       35.521      78.627    -113.632
  H       30.028      73.114    -112.547
  H       33.258      79.906    -113.703
  H       36.063      68.677    -116.391
  H       34.863      74.462    -113.882
  H       31.856      72.603    -115.433
  H       32.277      72.661    -112.619
  H       34.100      67.833    -117.323
  H       32.916      75.003    -112.643
  H       32.604      68.667    -117.049
  H       30.626      75.400    -114.653
  H       32.129      77.165    -115.554
  H       31.554      77.530    -113.911
  P       31.286      75.028    -110.533
  C       32.091      77.458    -110.091
  O       31.075      76.490    -109.914
  O       32.874      74.841    -110.555
  O       30.594      73.908    -109.835
  H       33.167      74.354    -109.761
  H       32.567      77.364    -111.071
  H       32.845      77.342    -109.307
  H       31.648      78.453    -110.012
  H       34.756      78.815    -117.933
  H       35.055      79.953    -116.641
  H       33.437      79.355    -116.922

 3  4  5  6  7  8  9  10  11  12  23  26  30  31  33  0
 6-311+G(2d,p)
 ****
 35  36  37  38 0
 6-311+G(2d,p)
 ****
 1  2  13  14  15  16  17  18  19  20  21  22  24  25  27  28  29 0
 3-21G
 ****
 32  34  39  40  41  42  43  44  45  46  47  48  49 0
 3-21G
 ****


