%nproc=1
%NoSave
%Mem=1900MB
#P OB98/GEN NMR

erre ene a

0 1
  C      506.467     479.592     187.752
  O      506.523     480.994     187.936
  H      505.630     479.197     188.327
  H      507.392     479.134     188.114
  H      506.317     479.353     186.694
  P      507.575     481.798     187.026
  C      508.850     483.367     188.700
  O      507.795     483.202     187.771
  C      508.373     484.163     189.918
  O      508.079     485.517     189.502
  C      507.113     483.594     190.572
  O      507.225     483.759     191.990
  C      506.001     484.474     190.033
  O      504.860     484.475     190.887
  C      506.718     485.818     189.876
  N      506.073     486.683     188.889
  C      504.907     487.340     189.298
  O      504.465     487.162     190.433
  N      504.250     488.147     188.402
  C      504.681     488.234     187.182
  N      503.978     489.038     186.339
  C      505.877     487.515     186.695
  C      506.520     486.779     187.593
  O      506.681     482.176     185.755
  O      508.817     481.037     186.710
  H      505.053     485.065     191.654
  H      505.777     482.456     185.979
  H      506.189     487.612     185.662
  H      507.413     486.222     187.323
  H      506.745     486.349     190.839
  H      505.680     484.099     189.051
  H      506.944     482.540     190.344
  H      509.197     484.228     190.638
  H      503.153     489.495     186.703
  H      509.690     483.889     188.233
  H      504.191     489.137     185.355
  H      509.191     482.374     189.004
  P      508.140     482.752     192.826
  C      506.663     482.411     194.912
  O      507.863     482.966     194.394
  O      509.581     482.713     192.441
  O      507.449     481.324     192.557
  H      508.158     480.660     192.465
  H      506.596     482.621     195.959
  H      506.665     481.352     194.760
  H      505.824     482.842     194.408

 6  7  8  9  10  11  12  13  14  15  16  26  30  31  32  33  35 0
 6-311+G(2d,p)
 ****
 37  38 0
 6-311+G(2d,p)
 ****
 1  2  3  4  5  17  18  19  20  21  22  23  24  25 0
 3-21G
 ****
 27  28  29  34  36  39  40  41  42  43  44  45  46 0
 3-21G
 ****


