%nproc=1
%NoSave
%Mem=1900MB
#P OB98/GEN NMR

erre ene a

0 1
  C     -283.833     253.830    -167.443
  O     -284.628     252.847    -166.771
  P     -286.164     252.745    -167.227
  C     -287.278     253.055    -164.903
  O     -287.013     252.173    -165.987
  C     -288.327     252.475    -163.948
  O     -289.393     251.809    -164.684
  C     -287.762     251.447    -162.956
  O     -288.492     251.605    -161.728
  C     -288.133     250.125    -163.597
  O     -288.085     249.054    -162.647
  C     -289.516     250.476    -164.133
  N     -292.221     246.268    -164.857
  C     -291.842     246.890    -163.686
  N     -292.296     246.340    -162.533
  N     -291.090     247.967    -163.642
  C     -290.752     248.422    -164.872
  C     -291.072     247.901    -166.103
  C     -291.885     246.705    -166.138
  O     -292.249     246.114    -167.147
  N     -290.560     248.679    -167.127
  C     -289.871     249.619    -166.494
  N     -290.004     249.542    -165.136
  O     -286.157     251.539    -168.275
  O     -286.691     254.003    -167.830
  H     -288.727     249.266    -161.940
  H     -286.163     251.882    -169.185
  H     -292.795     245.432    -164.839
  H     -289.295     250.387    -166.977
  H     -290.280     250.498    -163.340
  H     -287.436     249.896    -164.416
  H     -292.918     245.547    -162.499
  H     -286.686     251.551    -162.765
  H     -292.066     246.800    -161.662
  H     -288.783     253.311    -163.393
  H     -287.636     254.017    -165.285
  H     -286.342     253.269    -164.382
  P     -287.869     252.540    -160.594
  C     -287.262     250.654    -158.922
  O     -288.059     251.795    -159.186
  O     -288.908     253.761    -160.513
  O     -286.485     253.032    -160.885
  H     -288.425     254.597    -160.380
  H     -287.154     250.543    -157.836
  H     -286.273     250.739    -159.368
  H     -287.758     249.765    -159.316
  H     -282.835     253.805    -167.058
  H     -284.254     254.800    -167.281
  H     -283.816     253.619    -168.492

 3  4  5  6  7  8  9  10  11  12  23  26  30  31 0
 6-311+G(2d,p)
 ****
 33  35  36  37  38 0
 6-311+G(2d,p)
 ****
 1  2  13  14  15  16  17  18  19  20  21  22  24  25 0
 3-21G
 ****
 27  28  29  32  34  39  40  41  42  43  44  45  46  47  48  49 0
 3-21G
 ****


