%nproc=1
%NoSave
%Mem=1900MB
#P OB98/GEN NMR

erre ene a

0 1
  C     -480.486    1242.480     140.761
  O     -480.451    1241.282     139.985
  H     -480.984    1243.250     140.183
  H     -479.467    1242.804     140.980
  H     -481.042    1242.303     141.674
  P     -479.712    1240.020     140.647
  C     -477.426    1241.125     140.094
  O     -478.281    1240.597     141.102
  C     -475.973    1241.130     140.560
  O     -475.821    1242.040     141.683
  C     -475.455    1239.809     141.047
  O     -475.027    1238.999     139.926
  C     -474.283    1240.215     141.909
  O     -473.131    1240.496     141.075
  C     -474.784    1241.518     142.547
  N     -473.819    1240.192     147.423
  C     -473.083    1240.060     146.286
  N     -473.416    1240.383     145.042
  C     -474.670    1240.918     144.982
  C     -475.544    1241.104     146.056
  C     -475.072    1240.700     147.320
  N     -475.823    1240.854     148.468
  N     -476.721    1241.646     145.613
  C     -476.565    1241.838     144.333
  N     -475.356    1241.389     143.889
  O     -479.696    1238.787     139.832
  O     -480.494    1239.904     142.041
  H     -472.379    1240.655     141.665
  H     -480.662    1240.789     142.414
  H     -472.090    1239.648     146.434
  H     -477.277    1242.323     143.671
  H     -474.004    1242.281     142.609
  H     -473.968    1239.428     142.610
  H     -476.190    1239.250     141.652
  H     -475.354    1241.514     139.747
  H     -477.733    1242.133     139.821
  H     -475.481    1240.390     149.286
  H     -476.779    1241.123     148.365
  H     -477.527    1240.482     139.222
  P     -474.881    1237.411     140.049
  C     -472.522    1237.388     141.039
  O     -473.910    1237.162     141.293
  O     -474.501    1236.731     138.774
  O     -476.308    1236.932     140.607
  H     -476.419    1235.950     140.452
  H     -471.960    1237.195     141.929
  H     -472.375    1238.404     140.738
  H     -472.191    1236.734     140.260

 6  7  8  9  10  11  12  13  14  15  25  28  32  33  34  35 0
 6-311+G(2d,p)
 ****
 36  39  40 0
 6-311+G(2d,p)
 ****
 1  2  3  4  5  16  17  18  19  20  21  22  23  24 0
 3-21G
 ****
 26  27  29  30  31  37  38  41  42  43  44  45  46  47 0
 3-21G
 ****
 48 0
 3-21G
 ****


