%nproc=1
%NoSave
%Mem=1900MB
#P OB98/GEN NMR

erre ene a

0 1
  C      -84.989    -137.074      41.570
  O      -85.621    -138.165      40.921
  P      -85.177    -138.606      39.444
  C      -87.270    -137.338      38.655
  O      -86.492    -138.522      38.528
  C      -87.669    -136.805      37.279
  O      -88.525    -135.651      37.458
  C      -86.482    -136.368      36.431
  O      -86.753    -136.681      35.061
  C      -86.450    -134.857      36.576
  O      -85.827    -134.235      35.440
  C      -87.940    -134.540      36.752
  N      -90.200    -129.931      36.834
  C      -90.208    -130.919      35.914
  N      -89.566    -132.106      35.945
  C      -88.898    -132.250      37.102
  C      -88.799    -131.330      38.136
  C      -89.489    -130.119      37.970
  N      -89.488    -129.117      38.918
  N      -87.998    -131.821      39.150
  C      -87.640    -133.019      38.743
  N      -88.167    -133.328      37.515
  O      -84.448    -139.902      39.366
  O      -84.288    -137.389      38.911
  H      -86.480    -134.252      34.709
  H      -83.537    -137.723      38.385
  H      -90.812    -130.729      35.029
  H      -86.996    -133.693      39.286
  H      -88.449    -134.443      35.787
  H      -85.873    -134.586      37.468
  H      -85.541    -136.835      36.740
  H      -88.257    -137.574      36.764
  H      -86.668    -136.585      39.171
  H      -90.107    -128.337      38.768
  H      -89.106    -129.325      39.831
  H      -88.157    -137.548      39.261
  P      -85.600    -137.495      34.284
  C      -84.337    -135.382      33.437
  O      -85.121    -136.509      33.116
  O      -86.053    -138.860      33.882
  O      -84.420    -137.472      35.366
  H      -84.508    -136.707      35.979
  H      -84.146    -134.817      32.521
  H      -83.377    -135.697      33.856
  H      -84.862    -134.738      34.147
  H      -85.421    -136.937      42.539
  H      -85.126    -136.186      40.990
  H      -83.943    -137.276      41.671

 3  4  5  6  7  8  9  10  11  12  22  25  29  30  31  32 0
 6-311+G(2d,p)
 ****
 33  36  37 0
 6-311+G(2d,p)
 ****
 1  2  13  14  15  16  17  18  19  20  21  23  24  26 0
 3-21G
 ****
 27  28  34  35  38  39  40  41  42  43  44  45  46  47  48 0
 3-21G
 ****


