%nproc=1
%NoSave
%Mem=1900MB
#P OB98/GEN NMR

erre ene a

0 1
  C      166.642    -231.630    -779.813
  O      167.024    -232.979    -780.044
  H      167.366    -230.975    -780.295
  H      166.639    -231.422    -778.737
  H      165.650    -231.438    -780.235
  P      166.029    -234.113    -779.485
  C      165.240    -234.579    -781.914
  O      164.864    -234.272    -780.580
  C      164.014    -234.697    -782.822
  O      163.244    -233.458    -782.726
  C      164.338    -234.929    -784.306
  O      163.330    -235.776    -784.858
  C      164.178    -233.532    -784.906
  O      163.947    -233.582    -786.313
  C      162.996    -233.021    -784.081
  N      160.920    -229.299    -786.757
  C      160.821    -230.672    -786.904
  N      160.056    -231.125    -787.922
  N      161.432    -231.529    -786.124
  C      162.135    -230.934    -785.128
  C      162.309    -229.595    -784.875
  C      161.662    -228.658    -785.769
  O      161.719    -227.435    -785.698
  N      163.129    -229.404    -783.792
  C      163.437    -230.619    -783.390
  N      162.852    -231.587    -784.164
  O      165.299    -233.374    -778.261
  O      166.688    -235.383    -779.060
  H      163.209    -234.198    -786.468
  H      165.770    -233.568    -777.420
  H      160.444    -228.699    -787.407
  H      164.077    -230.849    -782.528
  H      162.041    -233.444    -784.403
  H      165.083    -232.931    -784.723
  H      159.531    -230.527    -788.530
  H      165.332    -235.361    -784.492
  H      159.949    -232.133    -788.016
  H      163.379    -235.493    -782.419
  H      165.781    -235.535    -781.914
  H      165.912    -233.793    -782.286
  P      163.376    -237.338    -784.492
  C      161.136    -237.276    -783.174
  O      162.522    -237.570    -783.164
  O      164.885    -237.543    -783.999
  O      163.038    -238.255    -785.642
  H      165.171    -238.459    -784.170
  H      160.720    -237.487    -782.211
  H      160.649    -237.878    -783.913
  H      160.993    -236.241    -783.406

 6  7  8  9  10  11  12  13  14  15  26  29  33  34 0
 6-311+G(2d,p)
 ****
 36  38  39  40  41 0
 6-311+G(2d,p)
 ****
 1  2  3  4  5  16  17  18  19  20  21  22  23  24  25 0
 3-21G
 ****
 27  28  30  31  32  35  37  42  43  44  45  46  47 0
 3-21G
 ****
 48  49 0
 3-21G
 ****


