%nproc=1
%NoSave
%Mem=1900MB
#P OB98/GEN NMR

erre ene a

0 1
  C      276.794     267.837    -242.304
  O      276.960     266.912    -243.356
  P      276.449     265.397    -243.287
  C      274.228     265.643    -244.601
  O      274.844     265.412    -243.352
  C      273.529     264.398    -245.171
  O      272.444     264.016    -244.302
  C      272.912     264.713    -246.533
  O      273.693     264.669    -247.713
  C      271.631     263.885    -246.586
  O      271.798     262.668    -247.315
  C      271.337     263.589    -245.122
  N      266.390     262.983    -244.145
  C      267.366     262.026    -244.370
  N      266.906     260.758    -244.545
  N      268.634     262.287    -244.442
  C      268.928     263.607    -244.337
  C      268.066     264.648    -244.105
  C      266.652     264.347    -243.984
  O      265.759     265.174    -243.878
  N      268.698     265.864    -244.150
  C      269.947     265.565    -244.440
  N      270.125     264.214    -244.616
  O      277.129     264.501    -242.305
  O      276.835     264.867    -244.762
  H      270.959     262.172    -247.271
  H      277.082     263.925    -244.689
  H      265.410     262.741    -244.180
  H      270.742     266.289    -244.588
  H      271.223     262.506    -244.957
  H      270.828     264.437    -247.088
  H      265.928     260.553    -244.641
  H      272.568     265.755    -246.492
  H      267.567     260.067    -244.877
  H      274.210     263.547    -245.178
  H      274.994     266.008    -245.290
  H      273.481     266.443    -244.504
  P      273.740     265.779    -248.870
  C      276.159     266.548    -248.596
  O      274.794     266.901    -248.458
  O      272.333     266.534    -248.736
  O      273.904     265.224    -250.250
  H      272.105     266.968    -249.580
  H      276.774     267.241    -248.014
  H      276.453     266.609    -249.654
  H      276.347     265.527    -248.234
  H      277.216     268.778    -242.587
  H      277.289     267.473    -241.428
  H      275.751     267.961    -242.099

 3  4  5  6  7  8  9  10  11  12  23  26  30  31 0
 6-311+G(2d,p)
 ****
 33  35  36  37  38 0
 6-311+G(2d,p)
 ****
 1  2  13  14  15  16  17  18  19  20  21  22  24  25 0
 3-21G
 ****
 27  28  29  32  34  39  40  41  42  43  44  45  46  47  48  49 0
 3-21G
 ****


