%nproc=1
%NoSave
%Mem=1900MB
#P OB98/GEN NMR

erre ene a

0 1
  C     -130.359    -218.217      31.703
  O     -129.009    -217.837      31.834
  H     -130.714    -218.575      32.674
  H     -130.459    -219.032      30.981
  H     -130.972    -217.367      31.397
  P     -128.212    -217.309      30.543
  C     -126.117    -218.791      30.609
  O     -126.653    -217.507      30.898
  C     -124.783    -219.004      31.325
  O     -123.803    -218.059      30.817
  C     -124.861    -218.815      32.848
  O     -124.196    -219.895      33.505
  C     -124.094    -217.523      33.087
  O     -123.565    -217.425      34.405
  C     -123.062    -217.588      31.957
  N     -122.431    -216.298      31.717
  C     -121.077    -216.329      31.366
  O     -120.487    -217.406      31.269
  N     -120.413    -215.144      31.187
  C     -121.032    -214.024      31.390
  N     -120.308    -212.885      31.224
  C     -122.453    -213.944      31.788
  C     -123.086    -215.108      31.928
  O     -128.589    -215.937      30.097
  O     -128.461    -218.425      29.424
  H     -124.314    -217.434      35.042
  H     -128.317    -218.023      28.535
  H     -122.921    -212.985      31.949
  H     -124.131    -215.150      32.219
  H     -122.279    -218.324      32.182
  H     -124.766    -216.669      32.928
  H     -125.884    -218.747      33.219
  H     -124.407    -220.003      31.068
  H     -119.334    -212.986      30.958
  H     -125.988    -218.880      29.524
  H     -120.674    -211.957      31.377
  H     -126.830    -219.548      30.950
  P     -125.108    -220.821      34.446
  C     -123.067    -221.566      35.866
  O     -124.173    -221.966      35.069
  O     -126.038    -221.604      33.405
  O     -125.917    -220.049      35.435
  H     -126.958    -221.285      33.479
  H     -122.542    -222.433      36.208
  H     -123.418    -221.006      36.708
  H     -122.408    -220.957      35.282

 6  7  8  9  10  11  12  13  14  15  16  26  30  31  32  33  35 0
 6-311+G(2d,p)
 ****
 37  38 0
 6-311+G(2d,p)
 ****
 1  2  3  4  5  17  18  19  20  21  22  23  24  25 0
 3-21G
 ****
 27  28  29  34  36  39  40  41  42  43  44  45  46 0
 3-21G
 ****


