%nproc=1
%NoSave
%Mem=1900MB
#P OB98/GEN NMR

erre ene a

0 1
  C      845.234    -374.022     -78.915
  O      845.287    -375.334     -79.428
  H      845.451    -373.319     -79.727
  H      845.980    -373.887     -78.132
  H      844.233    -373.802     -78.522
  P      844.811    -376.511     -78.443
  C      845.569    -377.419     -76.132
  O      845.733    -376.430     -77.138
  C      846.930    -377.867     -75.593
  O      847.620    -376.743     -75.008
  C      846.845    -378.944     -74.507
  O      846.703    -380.239     -75.064
  C      848.210    -378.770     -73.849
  O      849.227    -379.377     -74.675
  C      848.372    -377.245     -73.854
  N      849.579    -374.304     -69.897
  C      850.376    -374.769     -70.934
  N      851.684    -374.416     -70.905
  N      849.928    -375.538     -71.908
  C      848.609    -375.806     -71.802
  C      847.720    -375.395     -70.824
  C      848.224    -374.556     -69.761
  O      847.567    -374.092     -68.838
  N      846.455    -375.867     -71.067
  C      846.586    -376.592     -72.159
  N      847.868    -376.596     -72.651
  O      845.321    -377.843     -79.180
  O      843.340    -376.564     -78.186
  H      850.080    -379.063     -74.347
  H      844.667    -378.553     -79.037
  H      849.982    -373.735     -69.175
  H      845.776    -377.121     -72.651
  H      849.409    -376.927     -73.971
  H      848.261    -379.239     -72.873
  H      852.093    -373.888     -70.162
  H      846.054    -378.730     -73.782
  H      852.279    -374.740     -71.675
  H      847.529    -378.214     -76.440
  H      845.045    -378.286     -76.563
  H      844.959    -376.996     -75.326
  P      846.562    -381.476     -74.046
  C      848.055    -382.346     -72.099
  O      847.970    -381.548     -73.271
  O      846.608    -382.746     -75.010
  O      845.356    -381.455     -73.178
  H      846.183    -383.516     -74.566
  H      849.047    -382.292     -71.702
  H      847.823    -383.362     -72.342
  H      847.359    -381.985     -71.371

 6  7  8  9  10  11  12  13  14  15  26  29  33  34 0
 6-311+G(2d,p)
 ****
 36  38  39  40  41 0
 6-311+G(2d,p)
 ****
 1  2  3  4  5  16  17  18  19  20  21  22  23  24  25 0
 3-21G
 ****
 27  28  30  31  32  35  37  42  43  44  45  46  47 0
 3-21G
 ****
 48  49 0
 3-21G
 ****


