%nproc=1
%NoSave
%Mem=1900MB
#P OB98/GEN NMR

erre ene a

0 1
  C     -102.696     199.547     -57.308
  O     -102.988     199.937     -55.978
  P     -101.782     200.032     -54.926
  C     -100.759     202.301     -55.767
  O     -100.629     200.898     -55.630
  C      -99.418     202.988     -55.488
  O      -99.009     202.686     -54.125
  C      -98.277     202.555     -56.417
  O      -97.448     203.703     -56.635
  C      -97.541     201.518     -55.585
  O      -96.199     201.329     -56.005
  C      -97.684     202.123     -54.183
  N      -97.490     201.152     -53.106
  C      -96.279     200.473     -53.054
  O      -95.372     200.621     -53.872
  N      -96.148     199.570     -52.028
  C      -97.108     199.243     -51.117
  O      -96.941     198.415     -50.229
  C      -98.383     199.959     -51.250
  C      -98.509     200.872     -52.215
  O     -101.221     198.535     -54.962
  O     -102.198     200.519     -53.580
  H     -101.271     198.131     -55.846
  H      -96.212     200.969     -56.910
  H      -95.264     199.094     -51.949
  H      -99.176     199.718     -50.552
  H      -99.441     201.412     -52.334
  H      -96.978     202.953     -54.060
  H      -98.060     200.557     -55.659
  H      -98.638     202.169     -57.373
  H      -99.571     204.073     -55.547
  H     -101.503     202.670     -55.055
  H     -101.114     202.535     -56.776
  P      -96.667     203.819     -58.038
  C      -97.916     205.896     -59.026
  O      -97.660     204.510     -59.085
  O      -96.677     202.279     -58.496
  O      -95.286     204.383     -57.947
  H      -97.557     201.871     -58.422
  H      -98.324     206.218     -59.987
  H      -97.003     206.461     -58.827
  H      -98.653     206.100     -58.243
  H     -103.599     199.532     -57.882
  H     -102.258     198.571     -57.305
  H     -102.010     200.244     -57.742

 3  4  5  6  7  8  9  10  11  12  13  24  28  29  30  31  32 0
 6-311+G(2d,p)
 ****
 33  34 0
 6-311+G(2d,p)
 ****
 1  2  14  15  16  17  18  19  20  21  22  23  25  26  27 0
 3-21G
 ****
 35  36  37  38  39  40  41  42  43  44  45 0
 3-21G
 ****


