%nproc=1
%NoSave
%Mem=1900MB
#P OB98/GEN NMR

erre ene a

0 1
  C       78.440     501.713     445.511
  O       77.766     502.949     445.639
  H       77.999     501.157     444.674
  H       78.323     501.122     446.425
  H       79.500     501.876     445.305
  P       78.279     503.927     446.802
  C       76.450     504.208     448.630
  O       77.554     503.444     448.150
  C       75.148     503.627     448.089
  O       75.069     502.215     448.409
  C       73.897     504.251     448.682
  O       73.592     505.508     448.108
  C       72.861     503.179     448.382
  O       72.356     503.299     447.046
  C       73.667     501.881     448.532
  N       70.848     498.336     450.886
  C       70.934     498.702     449.588
  N       71.724     499.650     449.039
  C       72.495     500.224     449.980
  C       72.518     499.952     451.333
  C       71.648     498.950     451.785
  N       71.534     498.591     453.109
  N       73.415     500.775     451.981
  C       73.934     501.533     451.033
  N       73.412     501.230     449.803
  O       77.560     505.313     446.454
  O       79.759     504.081     446.895
  H       71.999     504.205     446.970
  H       78.186     505.904     445.998
  H       70.279     498.173     448.902
  H       74.679     502.307     451.184
  H       73.435     501.156     447.745
  H       72.020     503.250     449.065
  H       74.001     504.342     449.776
  H       75.153     503.722     446.996
  H       76.551     505.249     448.299
  H       76.453     504.183     449.730
  H       70.839     497.915     453.370
  H       72.040     499.122     453.806
  P       72.837     506.589     449.023
  C       70.412     506.712     448.058
  O       71.288     506.188     449.051
  O       72.866     507.930     448.142
  O       73.446     506.799     450.365
  H       72.972     508.703     448.724
  H       69.421     506.344     448.226
  H       70.747     506.405     447.089
  H       70.409     507.781     448.113

 6  7  8  9  10  11  12  13  14  15  25  28  32  33  34  35 0
 6-311+G(2d,p)
 ****
 36  37  40 0
 6-311+G(2d,p)
 ****
 1  2  3  4  5  16  17  18  19  20  21  22  23  24 0
 3-21G
 ****
 26  27  29  30  31  38  39 41  42  43  44  45  46  47  48 0
 3-21G
 ****


