%nproc=1
%NoSave
%Mem=1900MB
#P OB98/GEN NMR

erre ene a

0 1
  C      209.012      38.358     448.889
  O      209.202      38.775     447.553
  H      209.577      39.023     449.549
  H      209.375      37.335     449.022
  H      207.953      38.414     449.151
  P      208.542      37.855     446.413
  C      210.252      36.385     445.098
  O      209.547      36.601     446.313
  C      211.575      37.145     445.120
  O      212.271      36.927     446.366
  C      212.563      36.729     444.029
  O      212.251      37.266     442.754
  C      213.838      37.324     444.597
  O      213.833      38.750     444.410
  C      213.697      36.950     446.087
  N      214.310      35.662     446.419
  C      215.709      35.628     446.484
  O      216.374      36.642     446.274
  N      216.330      34.433     446.758
  C      215.621      33.367     446.970
  N      216.291      32.215     447.231
  C      214.146      33.360     446.920
  C      213.565      34.524     446.644
  O      208.848      38.658     445.065
  O      207.109      37.495     446.610
  H      213.925      38.909     443.454
  H      208.612      38.103     444.282
  H      213.596      32.441     447.086
  H      212.484      34.593     446.591
  H      214.142      37.723     446.729
  H      214.742      36.945     444.118
  H      212.669      35.642     443.979
  H      211.342      38.216     445.058
  H      217.299      32.237     447.197
  H      209.628      36.735     444.272
  H      215.836      31.309     447.256
  H      210.453      35.315     444.970
  P      213.046      36.673     441.492
  C      214.479      38.515     440.340
  O      214.399      37.520     441.353
  O      212.171      37.163     440.246
  O      213.223      35.184     441.505
  H      212.186      36.498     439.529
  H      215.439      38.987     440.378
  H      213.715      39.247     440.498
  H      214.344      38.060     439.381

 6  7  8  9  10  11  12  13  14  15  16  26  30  31  32  33  35 0
 6-311+G(2d,p)
 ****
 37  38 0
 6-311+G(2d,p)
 ****
 1  2  3  4  5  17  18  19  20  21  22  23  24  25 0
 3-21G
 ****
 27  28  29  34  36  39  40  41  42  43  44  45  46 0
 3-21G
 ****


