%nproc=1
%NoSave
%Mem=1900MB
#P OB98/GEN NMR

erre ene a

0 1
  C      820.627     104.680     190.525
  O      820.804     103.345     190.964
  H      819.585     104.820     190.234
  H      821.263     104.865     189.650
  H      820.878     105.380     191.323
  P      822.208     102.998     191.651
  C      823.845     102.266     189.735
  O      822.917     101.878     190.742
  C      824.309     101.042     188.945
  O      824.935     100.074     189.813
  C      823.181     100.262     188.300
  O      822.628     100.925     187.172
  C      823.901      98.969     187.933
  O      824.588      99.079     186.681
  C      824.901      98.817     189.104
  N      824.551      97.698     189.969
  C      825.358      96.561     189.836
  O      826.300      96.566     189.044
  N      825.047      95.446     190.569
  C      824.008      95.453     191.349
  N      823.742      94.305     192.031
  C      823.132      96.628     191.523
  C      823.456      97.708     190.804
  O      821.766     102.183     192.955
  O      823.070     104.174     191.932
  H      824.978      98.198     186.504
  H      821.128     101.476     192.777
  H      822.286      96.588     192.189
  H      822.866      98.623     190.865
  H      825.915      98.644     188.718
  H      823.197      98.136     187.836
  H      822.400     100.022     189.039
  H      825.043     101.368     188.202
  H      824.338      93.505     191.850
  H      824.707     102.774     190.182
  H      822.916      94.175     192.605
  H      823.346     102.979     189.076
  P      821.331     101.855     187.307
  C      819.783      99.891     186.708
  O      820.196     101.211     186.371
  O      821.555     103.317     187.074
  O      820.789     101.516     188.777
  H      820.559     100.578     188.921
  H      819.029      99.567     186.021
  H      819.387      99.884     187.702
  H      820.623      99.230     186.654

 6  7  8  9  10  11  12  13  14  15  16  26  30  31  32  33  35 0
 6-311+G(2d,p)
 ****
 37  38 0
 6-311+G(2d,p)
 ****
 1  2  3  4  5  17  18  19  20  21  22  23  24  25 0
 3-21G
 ****
 27  28  29  34  36  39  40  41  42  43  44  45  46 0
 3-21G
 ****


