%nproc=1
%NoSave
%Mem=1900MB
#P OB98/GEN NMR

erre ene a

0 1
  C      333.258      83.925     -93.655
  O      333.841      85.213     -93.667
  H      332.209      84.014     -93.953
  H      333.302      83.484     -92.656
  H      333.770      83.275     -94.371
  P      335.301      85.386     -93.021
  C      334.096      86.613     -91.094
  O      335.051      85.615     -91.449
  C      333.183      86.119     -89.968
  O      332.601      84.850     -90.321
  C      333.908      85.875     -88.654
  O      334.364      87.050     -88.018
  C      332.951      84.944     -87.921
  O      331.933      85.632     -87.200
  C      332.318      84.152     -89.090
  N      332.783      82.771     -89.130
  C      332.234      81.920     -88.174
  O      331.422      82.287     -87.324
  N      332.681      80.630     -88.199
  C      333.639      80.131     -89.032
  O      334.028      78.972     -88.976
  C      334.202      81.083     -90.003
  C      333.754      82.341     -90.008
  O      336.174      86.428     -93.654
  O      335.918      83.911     -93.078
  H      331.341      84.954     -86.822
  H      336.897      83.930     -92.958
  H      332.288      79.995     -87.521
  H      334.966      80.723     -90.679
  H      334.156      83.064     -90.714
  H      331.225      84.135     -88.989
  H      333.480      84.311     -87.204
  H      334.806      85.282     -88.868
  H      332.369      86.843     -89.842
  H      333.491      86.825     -91.982
  H      334.616      87.528     -90.792
  P      335.909      87.381     -87.793
  C      335.800      86.688     -85.290
  O      336.436      86.506     -86.551
  O      336.309      88.819     -87.875
  O      336.582      86.624     -89.050
  H      337.352      87.152     -89.334
  H      336.253      86.044     -84.566
  H      334.760      86.450     -85.377
  H      335.908      87.706     -84.980

 6  7  8  9  10  11  12  13  14  15  16  26  31  32  33  34  35 0
 6-311+G(2d,p)
 ****
 36  37 0
 6-311+G(2d,p)
 ****
 1  2  3  4  5  17  18  19  20  21  22  23  24  25 0
 3-21G
 ****
 27  28  29  30  38  39  40  41  42  43  44  45 0
 3-21G
 ****


