%nproc=1
%NoSave
%Mem=1900MB
#P OB98/GEN NMR

erre ene a

0 1
  C      295.125     568.840     416.135
  O      294.557     570.126     416.358
  P      293.528     570.716     415.279
  C      293.648     572.217     413.185
  O      294.275     571.841     414.409
  C      294.346     573.445     412.561
  O      294.093     574.625     413.379
  C      295.872     573.272     412.438
  O      296.366     573.562     411.136
  C      296.420     574.131     413.572
  O      297.760     574.553     413.337
  C      295.351     575.229     413.682
  N      295.372     575.846     415.019
  C      296.335     576.821     415.252
  O      297.195     577.125     414.429
  N      296.318     577.415     416.488
  C      295.492     577.077     417.522
  O      295.542     577.602     418.633
  C      294.529     575.999     417.256
  C      294.520     575.442     416.030
  O      292.179     571.115     415.812
  O      293.374     569.516     414.223
  H      298.090     574.995     414.148
  H      292.434     569.475     413.937
  H      297.007     578.135     416.649
  H      293.884     575.680     418.045
  H      293.832     574.631     415.798
  H      295.541     576.037     412.958
  H      296.412     573.540     414.490
  H      296.165     572.226     412.611
  H      293.902     573.616     411.572
  H      292.601     572.467     413.366
  H      293.636     571.364     412.495
  P      297.359     572.617     410.305
  C      299.927     572.316     410.092
  O      298.863     573.082     410.618
  O      297.042     572.456     408.856
  O      297.231     571.202     411.062
  H      297.227     570.491     410.396
  H      300.826     572.521     410.678
  H      300.101     572.607     409.048
  H      299.708     571.236     410.138
  H      295.785     568.597     416.942
  H      295.673     568.847     415.216
  H      294.345     568.110     416.080

 3  4  5  6  7  8  9  10  11  12  13  23  28  29  30  31  32 0
 6-311+G(2d,p)
 ****
 33  34 0
 6-311+G(2d,p)
 ****
 1  2  14  15  16  17  18  19  20  21  22  24  25  26  27 0
 3-21G
 ****
 35  36  37  38  39  40  41  42  43  44  45 0
 3-21G
 ****


