%nproc=1
%NoSave
%Mem=1900MB
#P OB98/GEN NMR

erre ene a

0 1
  C      -59.392      40.844     462.414
  O      -59.428      41.733     463.515
  P      -59.067      41.223     464.991
  C      -61.540      40.667     465.488
  O      -60.211      40.158     465.364
  C      -62.566      39.539     465.424
  O      -62.419      38.788     464.190
  C      -62.445      38.519     466.542
  O      -62.990      39.031     467.742
  C      -63.203      37.335     465.951
  O      -64.618      37.484     466.138
  C      -62.838      37.438     464.452
  N      -61.813      36.471     464.070
  C      -62.247      35.391     463.294
  O      -63.435      35.277     463.003
  N      -61.327      34.436     462.910
  C      -60.091      34.553     463.289
  N      -59.229      33.574     462.884
  C      -59.596      35.655     464.127
  C      -60.504      36.572     464.481
  O      -58.835      42.295     466.002
  O      -57.779      40.293     464.746
  H      -65.041      36.772     465.611
  H      -56.975      40.830     464.558
  H      -58.560      35.699     464.430
  H      -60.231      37.415     465.103
  H      -63.727      37.262     463.831
  H      -62.915      36.385     466.414
  H      -61.388      38.244     466.682
  H      -63.572      39.992     465.433
  H      -59.617      32.815     462.339
  H      -61.715      41.369     464.662
  H      -58.257      33.543     463.152
  H      -61.627      41.217     466.429
  P      -62.321      38.655     469.149
  C      -64.183      36.986     469.742
  O      -62.788      37.172     469.536
  O      -62.479      39.674     470.229
  O      -60.769      38.449     468.784
  H      -60.220      38.889     469.464
  H      -64.413      35.924     469.667
  H      -64.767      37.535     468.990
  H      -64.455      37.338     470.739
  H      -59.662      41.370     461.522
  H      -60.082      40.043     462.579
  H      -58.404      40.447     462.308

 3  4  5  6  7  8  9  10  11  12  13  23  27  28  29  30  32 0
 6-311+G(2d,p)
 ****
 34  35 0
 6-311+G(2d,p)
 ****
 1  2  14  15  16  17  18  19  20  21  22  24  25  26 0
 3-21G
 ****
 31  33  36  37  38  39  40  41  42  43  44  45  46 0
 3-21G
 ****


