%nproc=1
%NoSave
%Mem=1900MB
#P OB98/GEN NMR

erre ene a

0 1
  C     -890.987     718.818    -654.267
  O     -891.184     720.056    -653.597
  P     -892.088     721.203    -654.271
  C     -893.990     721.172    -652.505
  O     -893.600     720.907    -653.833
  C     -895.510     721.102    -652.369
  O     -896.110     721.977    -653.375
  C     -896.130     719.722    -652.617
  O     -897.450     719.705    -652.040
  C     -896.230     719.688    -654.130
  O     -897.150     718.719    -654.589
  C     -896.580     721.165    -654.469
  N     -895.920     721.579    -655.722
  C     -896.630     721.389    -656.901
  O     -897.790     720.959    -656.914
  N     -895.950     721.620    -658.070
  C     -894.630     721.964    -658.159
  O     -893.950     721.866    -659.161
  C     -894.010     722.384    -656.885
  C     -894.660     722.156    -655.749
  O     -892.058     720.797    -655.818
  O     -891.612     722.586    -654.037
  H     -897.890     718.697    -653.911
  H     -891.367     721.316    -656.283
  H     -896.410     721.335    -658.922
  H     -893.010     722.809    -656.927
  H     -894.200     722.403    -654.800
  H     -897.650     721.306    -654.581
  H     -895.240     719.427    -654.523
  H     -895.540     718.893    -652.208
  H     -895.810     721.482    -651.377
  H     -893.620     722.162    -652.209
  H     -893.550     720.439    -651.819
  P     -898.100     718.279    -651.679
  C     -897.240     718.027    -649.282
  O     -897.110     717.599    -650.626
  O     -898.490     717.426    -652.854
  O     -899.360     718.683    -650.781
  H     -900.000     717.938    -650.755
  H     -896.940     717.193    -648.617
  H     -898.260     718.322    -649.046
  H     -896.560     718.872    -649.105
  H     -890.363     718.185    -653.671
  H     -890.517     718.995    -655.212
  H     -891.933     718.342    -654.423

 3  4  5  6  7  8  9  10  11  12  13  23  28  29  30  31  32 0
 6-311+G(2d,p)
 ****
 33  34 0
 6-311+G(2d,p)
 ****
 1  2  14  15  16  17  18  19  20  21  22  24  25  26  27 0
 3-21G
 ****
 35  36  37  38  39  40  41  42  43  44  45 0
 3-21G
 ****


