%nproc=1
%NoSave
%Mem=1900MB
#P OB98/GEN NMR

erre ene a

0 1
  C      128.352     225.446     -41.634
  O      129.018     226.677     -41.871
  P      128.989     227.776     -40.697
  C      130.450     229.838     -40.097
  O      130.207     228.772     -41.008
  C      131.942     230.151     -40.021
  O      132.679     228.966     -39.653
  C      132.557     230.626     -41.329
  O      132.335     232.007     -41.557
  C      134.030     230.363     -41.067
  O      134.578     231.412     -40.249
  C      133.986     229.046     -40.280
  N      137.401     225.569     -41.829
  C      137.521     226.662     -41.045
  N      136.566     227.546     -40.689
  C      135.391     227.233     -41.262
  C      135.127     226.173     -42.113
  C      136.195     225.305     -42.389
  N      136.063     224.174     -43.164
  N      133.805     226.181     -42.499
  C      133.277     227.217     -41.887
  N      134.193     227.881     -41.119
  O      129.500     226.954     -39.422
  O      127.663     228.413     -40.462
  H      135.517     231.194     -40.101
  H      129.187     227.383     -38.601
  H      138.515     226.847     -40.645
  H      132.240     227.520     -41.964
  H      134.734     229.014     -39.481
  H      134.626     230.329     -41.985
  H      132.220     230.012     -42.174
  H      132.090     230.898     -39.232
  H      130.094     229.550     -39.106
  H      136.822     223.512     -43.163
  H      135.128     223.872     -43.410
  H      129.893     230.722     -40.428
  P      131.760     232.420     -42.998
  C      130.132     234.283     -43.799
  O      130.666     233.555     -42.707
  O      130.894     231.145     -43.423
  O      132.812     232.755     -44.001
  H      130.826     231.085     -44.395
  H      129.209     234.771     -43.476
  H      129.903     233.623     -44.642
  H      130.844     235.048     -44.115
  H      128.452     224.815     -42.493
  H      127.315     225.632     -41.447
  H      128.787     224.963     -40.784

 3  4  5  6  7  8  9  10  11  12  22  25  29  30  31  32 0
 6-311+G(2d,p)
 ****
 33  36  37 0
 6-311+G(2d,p)
 ****
 1  2  13  14  15  16  17  18  19  20  21  23  24  26 0
 3-21G
 ****
 27  28  34  35  38  39  40  41  42  43  44  45  46  47  48 0
 3-21G
 ****


