%nproc=1
%NoSave
%Mem=1900MB
#P OB98/GEN NMR

erre ene a

0 1
  C       37.322     136.335      -6.749
  O       37.118     135.651      -7.970
  H       38.235     135.975      -6.271
  H       37.432     137.403      -6.960
  H       36.468     136.193      -6.082
  P       36.760     134.091      -7.872
  C       35.217     133.615      -9.909
  O       36.537     133.599      -9.385
  C       34.868     135.008     -10.434
  O       35.804     135.359     -11.488
  C       33.455     135.106     -11.016
  O       32.897     136.374     -10.664
  C       33.684     135.040     -12.516
  O       32.634     135.657     -13.251
  C       35.035     135.738     -12.646
  N       36.078     137.121     -17.448
  C       35.447     137.761     -16.441
  N       35.215     137.322     -15.185
  C       35.758     136.106     -15.002
  C       36.428     135.331     -15.932
  C       36.576     135.883     -17.216
  N       37.185     135.224     -18.258
  N       36.804     134.123     -15.375
  C       36.368     134.172     -14.132
  N       35.726     135.349     -13.862
  O       35.276     134.120      -7.264
  O       37.686     133.262      -7.050
  H       32.795     135.504     -14.205
  H       35.323     134.262      -6.300
  H       35.071     138.754     -16.675
  H       36.481     133.387     -13.397
  H       34.944     136.831     -12.660
  H       33.754     133.993     -12.833
  H       32.796     134.310     -10.665
  H       35.016     135.735      -9.626
  H       34.516     133.338      -9.115
  H       37.197     135.671     -19.160
  H       37.507     134.277     -18.121
  H       35.142     132.885     -10.722
  P       32.165     136.471      -9.239
  C       33.115     138.778      -8.536
  O       31.962     138.021      -8.873
  O       33.290     135.982      -8.211
  O       30.934     135.630      -9.141
  H       32.924     135.302      -7.615
  H       32.829     139.786      -8.318
  H       33.799     138.772      -9.359
  H       33.586     138.347      -7.677

 6  7  8  9  10  11  12  13  14  15  25  28  32  33  34  35 0
 6-311+G(2d,p)
 ****
 36  39  40 0
 6-311+G(2d,p)
 ****
 1  2  3  4  5  16  17  18  19  20  21  22  23  24 0
 3-21G
 ****
 26  27  29  30  31  37  38  41  42  43  44  45  46  47 0
 3-21G
 ****
 48 0
 3-21G
 ****


