%nproc=1
%NoSave
%Mem=1900MB
#P OB98/GEN NMR

erre ene a

0 1
  C     1468.376     874.855    2668.578
  O     1468.413     875.655    2669.751
  P     1467.179     875.925    2670.722
  C     1467.486     873.999    2672.522
  O     1466.783     874.505    2671.408
  C     1466.726     872.856    2673.189
  O     1465.297     873.240    2673.291
  C     1466.758     871.531    2672.372
  O     1466.942     870.381    2673.160
  C     1465.482     871.610    2671.543
  O     1465.056     870.343    2671.035
  C     1464.527     872.326    2672.504
  N     1459.897     872.062    2670.318
  C     1460.698     871.058    2670.794
  N     1460.246     869.784    2670.620
  N     1461.855     871.234    2671.308
  C     1462.261     872.516    2671.325
  C     1461.533     873.650    2670.933
  C     1460.230     873.420    2670.390
  O     1459.456     874.284    2669.979
  N     1462.257     874.829    2671.100
  C     1463.391     874.390    2671.633
  N     1463.464     873.045    2671.799
  O     1466.049     876.764    2670.217
  O     1467.886     876.726    2671.971
  H     1464.109     870.497    2670.729
  H     1467.168     877.310    2672.322
  H     1458.959     871.852    2669.930
  H     1464.206     875.081    2671.922
  H     1464.024     871.624    2673.172
  H     1465.677     872.257    2670.667
  H     1459.364     869.557    2670.113
  H     1467.627     871.533    2671.701
  H     1460.947     869.025    2670.742
  H     1467.104     872.702    2674.233
  H     1467.621     874.826    2673.193
  H     1468.499     873.688    2672.213
  P     1468.177     869.316    2673.156
  C     1469.041     869.887    2675.524
  O     1469.335     869.922    2674.115
  O     1468.846     869.494    2671.682
  O     1467.781     867.904    2673.401
  H     1468.792     868.655    2671.251
  H     1469.771     870.546    2676.036
  H     1469.144     868.863    2675.905
  H     1468.046     870.291    2675.708
  H     1469.343     874.848    2668.121
  H     1467.661     875.260    2667.893
  H     1468.096     873.855    2668.837

 3  4  5  6  7  8  9  10  11  12  23  26  30  31 0
 6-311+G(2d,p)
 ****
 33  35  36  37  38 0
 6-311+G(2d,p)
 ****
 1  2  13  14  15  16  17  18  19  20  21  22  24  25 0
 3-21G
 ****
 27  28  29  32  34  39  40  41  42  43  44  45  46  47  48  49 0
 3-21G
 ****


