%nproc=1
%NoSave
%Mem=1900MB
#P OB98/GEN NMR

erre ene a

0 1
  C       34.932       6.574    -613.944
  O       35.030       7.772    -614.681
  P       36.163       7.952    -615.802
  C       34.948      10.146    -616.387
  O       36.203       9.521    -616.150
  C       34.931      11.547    -615.781
  O       34.908      11.484    -614.329
  C       36.164      12.377    -616.102
  O       36.360      12.757    -617.453
  C       36.046      13.494    -615.081
  O       35.129      14.501    -615.516
  C       35.474      12.737    -613.859
  N       36.489      12.519    -612.830
  C       36.123      12.852    -611.527
  O       35.016      13.305    -611.230
  N       37.084      12.675    -610.574
  C       38.366      12.256    -610.789
  O       39.191      12.166    -609.886
  C       38.703      11.935    -612.187
  C       37.767      12.077    -613.127
  O       36.034       7.056    -616.986
  O       37.527       7.751    -614.979
  H       34.232      14.119    -615.483
  H       37.660       8.388    -614.253
  H       36.842      12.923    -609.628
  H       39.707      11.584    -612.389
  H       37.991      11.849    -614.162
  H       34.647      13.304    -613.406
  H       37.004      13.991    -614.904
  H       37.053      11.792    -615.831
  H       34.009      12.047    -616.095
  H       34.158       9.545    -615.918
  H       34.751      10.176    -617.469
  P       37.733      13.370    -618.001
  C       36.499      14.072    -620.168
  O       37.383      14.446    -619.135
  O       38.838      12.403    -618.287
  O       38.177      14.315    -616.777
  H       39.147      14.354    -616.741
  H       36.411      14.905    -620.869
  H       35.508      13.853    -619.763
  H       36.884      13.198    -620.708
  H       34.120       6.647    -613.250
  H       35.844       6.408    -613.410
  H       34.757       5.757    -614.613

 3  4  5  6  7  8  9  10  11  12  13  23  28  29  30  31  32 0
 6-311+G(2d,p)
 ****
 33  34 0
 6-311+G(2d,p)
 ****
 1  2  14  15  16  17  18  19  20  21  22  24  25  26  27 0
 3-21G
 ****
 35  36  37  38  39  40  41  42  43  44  45 0
 3-21G
 ****


