%nproc=1
%NoSave
%Mem=1900MB
#P OB98/GEN NMR

erre ene a

0 1
  C      387.267     262.205     223.328
  O      388.196     262.451     222.277
  P      388.024     261.651     220.899
  C      389.864     259.801     221.347
  O      389.368     260.859     220.558
  C      391.298     259.464     220.908
  O      391.297     258.925     219.568
  C      392.224     260.681     220.899
  O      392.808     260.912     222.165
  C      393.227     260.301     219.826
  O      394.186     259.364     220.350
  C      392.311     259.618     218.784
  N      391.639     260.472     217.783
  C      392.361     261.453     217.110
  O      393.552     261.682     217.293
  N      391.659     262.188     216.189
  C      390.394     261.936     215.749
  O      389.839     262.591     214.874
  C      389.726     260.794     216.380
  C      390.359     260.136     217.357
  O      387.967     262.803     219.796
  O      386.816     260.767     220.845
  H      393.694     258.572     220.629
  H      387.094     262.818     219.362
  H      392.149     262.951     215.744
  H      388.738     260.530     216.028
  H      389.869     259.286     217.832
  H      392.870     258.857     218.224
  H      393.799     261.165     219.497
  H      391.680     261.565     220.552
  H      391.698     258.701     221.581
  H      389.228     258.914     221.252
  H      389.847     260.089     222.403
  P      392.212     262.049     223.123
  C      393.134     264.026     221.768
  O      393.214     263.298     222.982
  O      391.895     261.637     224.518
  O      390.912     262.559     222.337
  H      390.103     262.106     222.673
  H      393.739     264.930     221.861
  H      392.098     264.310     221.557
  H      393.528     263.420     220.946
  H      387.516     262.812     224.173
  H      387.308     261.172     223.606
  H      386.279     262.446     222.995

 3  4  5  6  7  8  9  10  11  12  13  23  28  29  30  31  32 0
 6-311+G(2d,p)
 ****
 33  34 0
 6-311+G(2d,p)
 ****
 1  2  14  15  16  17  18  19  20  21  22  24  25  26  27 0
 3-21G
 ****
 35  36  37  38  39  40  41  42  43  44  45 0
 3-21G
 ****


