%nproc=1
%NoSave
%Mem=1900MB
#P OB98/GEN NMR

erre ene a

0 1
  C      831.266    -293.467    -773.557
  O      830.222    -292.887    -772.809
  H      830.972    -293.471    -774.616
  H      831.423    -294.500    -773.238
  H      832.192    -292.898    -773.453
  P      830.534    -292.359    -771.331
  C      829.248    -290.192    -771.902
  O      829.436    -291.240    -770.966
  C      827.908    -289.469    -771.702
  O      826.809    -290.346    -771.991
  C      827.722    -289.024    -770.236
  O      828.328    -287.786    -769.898
  C      826.199    -288.925    -770.141
  O      825.726    -287.656    -770.610
  C      825.731    -290.056    -771.083
  N      822.021    -292.532    -768.598
  C      822.022    -291.241    -769.117
  N      820.908    -290.502    -768.873
  N      823.021    -290.731    -769.776
  C      824.102    -291.542    -769.858
  C      824.213    -292.831    -769.371
  C      823.077    -293.413    -768.689
  O      823.031    -294.542    -768.209
  N      825.468    -293.360    -769.639
  C      826.122    -292.356    -770.204
  N      825.320    -291.248    -770.386
  O      831.869    -291.483    -771.522
  O      830.736    -293.422    -770.294
  H      826.208    -286.955    -770.139
  H      832.370    -291.457    -770.685
  H      821.206    -292.882    -768.141
  H      827.155    -292.399    -770.533
  H      824.893    -289.726    -771.703
  H      825.859    -289.042    -769.108
  H      820.159    -290.818    -768.280
  H      828.064    -289.803    -769.547
  H      820.972    -289.491    -768.993
  H      827.845    -288.618    -772.390
  H      829.275    -290.645    -772.899
  H      830.077    -289.486    -771.852
  P      829.361    -287.706    -768.686
  C      831.374    -287.019    -770.178
  O      830.520    -286.679    -769.113
  O      830.088    -289.135    -768.730
  O      828.752    -287.444    -767.349
  H      829.663    -289.751    -768.103
  H      832.083    -286.233    -770.331
  H      830.797    -287.157    -771.068
  H      831.892    -287.926    -769.944

 6  7  8  9  10  11  12  13  14  15  26  29  33  34 0
 6-311+G(2d,p)
 ****
 36  38  39  40  41 0
 6-311+G(2d,p)
 ****
 1  2  3  4  5  16  17  18  19  20  21  22  23  24  25 0
 3-21G
 ****
 27  28  30  31  32  35  37  42  43  44  45  46  47 0
 3-21G
 ****
 48  49 0
 3-21G
 ****


