%nproc=1
%NoSave
%Mem=1900MB
#P OB98/GEN NMR

erre ene a

0 1
  C     -507.835    -417.241      54.314
  O     -508.817    -416.936      53.330
  P     -510.109    -416.095      53.807
  C     -512.283    -416.656      55.115
  O     -511.090    -417.142      54.514
  C     -513.409    -417.679      54.962
  O     -512.981    -418.983      55.402
  C     -514.651    -417.360      55.793
  O     -515.481    -416.401      55.169
  C     -515.333    -418.725      55.817
  O     -516.051    -418.934      54.583
  C     -514.139    -419.678      55.925
  N     -515.891    -422.438      59.799
  C     -516.318    -422.383      58.482
  N     -517.405    -423.128      58.174
  N     -515.731    -421.674      57.543
  C     -514.671    -420.962      58.013
  C     -514.140    -420.946      59.280
  C     -514.806    -421.731      60.301
  O     -514.503    -421.777      61.487
  N     -513.050    -420.114      59.362
  C     -512.896    -419.654      58.127
  N     -513.883    -420.108      57.289
  O     -510.852    -415.763      52.428
  O     -509.798    -414.863      54.593
  H     -516.864    -418.393      54.642
  H     -511.490    -415.042      52.562
  H     -516.372    -423.002      60.462
  H     -512.120    -418.969      57.820
  H     -514.276    -420.580      55.309
  H     -516.064    -418.811      56.629
  H     -517.933    -423.652      58.852
  H     -514.376    -417.066      56.813
  H     -517.780    -423.069      57.229
  H     -513.667    -417.743      53.899
  H     -512.568    -415.721      54.635
  H     -512.090    -416.460      56.176
  P     -516.798    -415.951      55.978
  C     -518.795    -417.322      56.905
  O     -517.774    -417.222      55.939
  O     -517.487    -414.887      54.995
  O     -516.516    -415.370      57.326
  H     -518.036    -414.263      55.491
  H     -519.520    -418.080      56.580
  H     -519.322    -416.366      57.017
  H     -518.382    -417.618      57.875
  H     -507.040    -417.798      53.864
  H     -508.280    -417.823      55.094
  H     -507.447    -416.332      54.724

 3  4  5  6  7  8  9  10  11  12  23  26  30  31 0
 6-311+G(2d,p)
 ****
 33  35  36  37  38 0
 6-311+G(2d,p)
 ****
 1  2  13  14  15  16  17  18  19  20  21  22  24  25 0
 3-21G
 ****
 27  28  29  32  34  39  40  41  42  43  44  45  46  47  48  49 0
 3-21G
 ****


