%nproc=1
%NoSave
%Mem=1900MB
#P OB98/GEN NMR

erre ene a

0 1
  C       30.786      72.454       2.601
  O       31.332      72.178       3.893
  P       32.283      70.889       4.016
  C       33.447      71.801       6.146
  O       32.732      70.728       5.550
  C       33.862      71.479       7.586
  O       32.710      71.477       8.471
  C       34.550      70.118       7.736
  O       35.525      70.243       8.776
  C       33.429      69.220       8.224
  O       33.943      68.056       8.869
  C       32.661      70.196       9.135
  N       31.288      69.773       9.398
  C       31.075      68.953      10.508
  O       32.031      68.555      11.178
  N       29.795      68.564      10.812
  C       28.813      68.920      10.040
  N       27.567      68.500      10.390
  C       28.997      69.735       8.823
  C       30.245      70.124       8.570
  O       33.626      71.344       3.271
  O       31.704      69.658       3.392
  H       34.509      68.348       9.616
  H       33.895      70.667       2.625
  H       28.155      69.993       8.199
  H       30.480      70.729       7.704
  H       33.169      70.300      10.100
  H       32.801      68.903       7.382
  H       35.030      69.769       6.817
  H       34.538      72.271       7.932
  H       27.481      67.949      11.238
  H       32.832      72.703       6.144
  H       26.736      68.718       9.865
  H       34.322      72.031       5.527
  P       37.070      70.325       8.361
  C       37.741      71.566      10.509
  O       37.867      70.373       9.754
  O       37.192      71.851       7.872
  O       37.583      69.380       7.324
  H       38.089      72.013       7.522
  H       38.224      71.418      11.478
  H       36.684      71.803      10.673
  H       38.236      72.389       9.992
  H       30.175      73.331       2.652
  H       30.192      71.624       2.280
  H       31.582      72.614       1.904

 3  4  5  6  7  8  9  10  11  12  13  21  23  27  28  29  30  32 0
 6-311+G(2d,p)
 ****
 34  35 0
 6-311+G(2d,p)
 ****
 1  2  14  15  16  17  18  19  20  22  24  25  26 0
 3-21G
 ****
 31  33  36  37  38  39  40  41  42  43  44  45  46 0
 3-21G
 ****


