%nproc=1
%NoSave
%Mem=1900MB
#P OB98/GEN NMR

erre ene a

0 1
  C     -520.502     299.156    -286.508
  O     -519.313     299.301    -285.740
  P     -519.305     298.679    -284.254
  C     -517.658     296.748    -284.851
  O     -518.976     297.115    -284.452
  C     -516.860     296.236    -283.651
  O     -517.646     295.257    -282.939
  C     -515.555     295.544    -284.013
  O     -514.515     296.472    -284.251
  C     -515.302     294.738    -282.745
  O     -514.685     295.593    -281.756
  C     -516.714     294.333    -282.303
  N     -516.833     289.503    -280.770
  C     -516.390     290.631    -280.098
  N     -515.951     290.459    -278.836
  N     -516.396     291.832    -280.628
  C     -516.893     291.867    -281.892
  C     -517.352     290.816    -282.647
  C     -517.301     289.491    -282.077
  O     -517.616     288.436    -282.637
  N     -517.806     291.249    -283.877
  C     -517.659     292.563    -283.837
  N     -517.082     292.974    -282.656
  O     -520.862     298.675    -283.857
  O     -518.481     299.399    -283.261
  H     -513.749     295.687    -282.009
  H     -520.953     298.694    -282.887
  H     -516.820     288.616    -280.300
  H     -517.954     293.234    -284.638
  H     -516.854     294.453    -281.217
  H     -514.621     293.894    -282.901
  H     -516.052     289.582    -278.342
  H     -515.706     294.848    -284.858
  H     -515.670     291.286    -278.318
  H     -516.681     297.077    -282.967
  H     -517.153     297.635    -285.260
  H     -517.714     295.986    -285.623
  P     -514.003     296.596    -285.791
  C     -514.065     299.200    -285.633
  O     -514.539     298.024    -286.285
  O     -514.931     295.549    -286.562
  O     -512.559     296.321    -285.973
  H     -514.483     295.232    -287.376
  H     -513.012     299.096    -285.342
  H     -514.685     299.389    -284.747
  H     -514.159     300.041    -286.324
  H     -520.366     299.613    -287.466
  H     -521.315     299.630    -285.999
  H     -520.719     298.116    -286.636

 3  4  5  6  7  8  9  10  11  12  23  26  30  31  33  0
 6-311+G(2d,p)
 ****
 35  36  37  38 0
 6-311+G(2d,p)
 ****
 1  2  13  14  15  16  17  18  19  20  21  22  24  25  27  28  29 0
 3-21G
 ****
 32  34  39  40  41  42  43  44  45  46  47  48  49 0
 3-21G
 ****


