%nproc=1
%NoSave
%Mem=1900MB
#P OB98/GEN NMR

erre ene a

0 1
  C      144.480     -65.539     308.851
  O      143.210     -65.784     308.235
  P      142.250     -64.516     308.013
  C      140.649     -64.609     310.051
  O      141.779     -63.979     309.455
  C      140.538     -64.254     311.542
  O      140.249     -62.841     311.726
  C      139.436     -65.032     312.277
  O      139.884     -65.255     313.617
  C      138.285     -64.041     312.306
  O      137.329     -64.378     313.312
  C      139.052     -62.740     312.516
  N      136.723     -58.529     314.248
  C      137.421     -59.501     314.875
  N      137.996     -60.605     314.342
  C      137.816     -60.627     313.008
  C      137.122     -59.723     312.237
  C      136.549     -58.627     312.905
  N      135.810     -57.647     312.273
  N      137.121     -60.112     310.909
  C      137.807     -61.241     310.893
  N      138.271     -61.576     312.131
  O      140.922     -65.168     307.402
  O      142.821     -63.479     307.104
  H      136.820     -65.147     312.992
  H      140.850     -64.948     306.452
  H      137.535     -59.379     315.948
  H      137.982     -61.849     310.019
  H      139.344     -62.594     313.566
  H      137.770     -64.043     311.329
  H      139.161     -65.988     311.818
  H      141.502     -64.454     312.018
  H      140.728     -65.699     309.948
  H      135.410     -56.917     312.832
  H      135.635     -57.732     311.280
  H      139.745     -64.317     309.505
  P      140.287     -66.757     314.004
  C      138.108     -67.740     315.016
  O      138.947     -67.627     313.878
  O      140.553     -66.681     315.583
  O      141.472     -67.276     313.258
  H      141.170     -67.390     315.852
  H      137.063     -67.679     314.695
  H      138.295     -66.955     315.752
  H      138.277     -68.714     315.486
  H      145.017     -66.460     308.940
  H      144.330     -65.119     309.823
  H      145.042     -64.855     308.250

 3  4  5  6  7  8  9  10  11  12  22  25  29  30  31  32 0
 6-311+G(2d,p)
 ****
 33  36  37 0
 6-311+G(2d,p)
 ****
 1  2  13  14  15  16  17  18  19  20  21  23  24  26 0
 3-21G
 ****
 27  28  34  35  38  39  40  41  42  43  44  45  46  47  48 0
 3-21G
 ****


