%nproc=1
%NoSave
%Mem=1900MB
#P OB98/GEN NMR

erre ene a

0 1
  C     1322.511    -386.482     324.377
  O     1323.670    -387.291     324.503
  H     1321.666    -387.134     324.137
  H     1322.644    -385.756     323.580
  H     1322.306    -385.990     325.337
  P     1325.046    -386.519     324.832
  C     1325.654    -384.106     324.126
  O     1325.112    -385.343     323.727
  C     1325.465    -383.052     323.035
  O     1324.089    -383.018     322.623
  C     1325.828    -381.633     323.440
  O     1327.232    -381.418     323.326
  C     1325.044    -380.812     322.412
  O     1325.793    -380.793     321.176
  C     1323.771    -381.648     322.230
  N     1318.999    -379.755     322.008
  C     1319.939    -379.902     321.059
  N     1321.222    -380.365     321.191
  C     1321.465    -380.692     322.483
  C     1320.590    -380.594     323.550
  C     1319.311    -380.103     323.286
  N     1318.345    -379.920     324.249
  N     1321.199    -380.980     324.731
  C     1322.395    -381.410     324.357
  N     1322.622    -381.213     323.010
  O     1326.253    -387.382     324.948
  O     1324.640    -385.722     326.155
  H     1326.722    -380.591     321.425
  H     1323.743    -385.363     326.076
  H     1319.654    -379.652     320.033
  H     1323.137    -381.885     325.001
  H     1323.437    -381.685     321.178
  H     1324.894    -379.783     322.731
  H     1325.451    -381.384     324.456
  H     1326.056    -383.368     322.165
  H     1326.726    -384.203     324.372
  H     1317.519    -379.406     323.998
  H     1318.630    -380.044     325.233
  H     1325.129    -383.788     325.047
  P     1327.997    -380.320     324.236
  C     1327.918    -377.760     324.349
  O     1327.519    -378.904     323.609
  O     1329.461    -380.548     324.331
  O     1327.224    -380.389     325.640
  H     1327.792    -379.951     326.309
  H     1327.559    -376.877     323.862
  H     1328.986    -377.727     324.406
  H     1327.509    -377.814     325.336

 6  7  8  9  10  11  12  13  14  15  25  28  32  33  34  35 0
 6-311+G(2d,p)
 ****
 36  39  40 0
 6-311+G(2d,p)
 ****
 1  2  3  4  5  16  17  18  19  20  21  22  23  24 0
 3-21G
 ****
 26  27  29  30  31  37  38  41  42  43  44  45  46  47 0
 3-21G
 ****
 48 0
 3-21G
 ****


