%nproc=1
%NoSave
%Mem=1900MB
#P OB98/GEN NMR

erre ene a

0 1
  C     -175.250     331.827     -11.913
  O     -174.785     331.676     -13.236
  H     -174.435     332.236     -11.306
  H     -175.543     330.859     -11.493
  H     -176.091     332.521     -11.878
  P     -175.716     330.919     -14.307
  C     -174.094     328.987     -14.784
  O     -174.679     330.175     -15.299
  C     -172.605     328.899     -15.128
  O     -172.413     329.153     -16.545
  C     -171.731     329.898     -14.356
  O     -170.579     329.226     -13.838
  C     -171.321     330.912     -15.414
  O     -170.114     331.587     -15.072
  C     -171.273     330.029     -16.667
  N     -171.307     330.797     -17.908
  C     -170.395     330.423     -18.897
  O     -169.586     329.513     -18.691
  N     -170.384     331.113     -20.087
  C     -171.182     332.119     -20.254
  N     -171.121     332.768     -21.444
  C     -172.133     332.580     -19.212
  C     -172.145     331.874     -18.078
  O     -176.721     331.786     -14.986
  O     -176.361     329.704     -13.488
  H     -169.391     330.924     -15.020
  H     -177.172     329.381     -13.961
  H     -172.767     333.431     -19.389
  H     -172.818     332.136     -17.264
  H     -170.364     329.404     -16.668
  H     -172.114     331.667     -15.523
  H     -172.248     330.376     -13.524
  H     -172.268     327.866     -14.960
  H     -170.459     332.422     -22.130
  H     -174.632     328.122     -15.200
  H     -171.692     333.571     -21.680
  H     -174.207     328.990     -13.691
  P     -170.480     329.115     -12.239
  C     -167.885     329.082     -12.174
  O     -169.093     328.391     -11.875
  O     -171.589     328.022     -11.877
  O     -170.723     330.408     -11.538
  H     -172.398     328.457     -11.554
  H     -167.049     328.483     -11.879
  H     -167.864     330.010     -11.642
  H     -167.834     329.272     -13.226

 6  7  8  9  10  11  12  13  14  15  16  26  30  31  32  33  35 0
 6-311+G(2d,p)
 ****
 37  38 0
 6-311+G(2d,p)
 ****
 1  2  3  4  5  17  18  19  20  21  22  23  24  25 0
 3-21G
 ****
 27  28  29  34  36  39  40  41  42  43  44  45  46 0
 3-21G
 ****


