%nproc=1
%NoSave
%Mem=1900MB
#P OB98/GEN NMR

erre ene a

0 1
  C       26.158     -68.330      60.450
  O       27.520     -68.225      60.839
  P       28.386     -69.577      60.882
  C       27.894     -69.843      63.409
  O       27.827     -70.438      62.119
  C       27.409     -70.816      64.479
  O       25.985     -71.051      64.292
  C       28.110     -72.184      64.456
  O       28.418     -72.582      65.801
  C       27.037     -73.125      63.932
  O       27.248     -74.466      64.359
  C       25.784     -72.464      64.507
  N       22.069     -75.876      64.793
  C       23.049     -75.560      65.713
  N       23.076     -76.301      66.844
  N       23.930     -74.609      65.541
  C       23.765     -73.930      64.378
  C       22.827     -74.143      63.393
  C       21.898     -75.240      63.572
  O       21.064     -75.626      62.754
  N       22.966     -73.239      62.369
  C       23.986     -72.485      62.730
  N       24.537     -72.897      63.919
  O       29.816     -69.065      61.391
  O       28.503     -70.304      59.587
  H       28.147     -74.718      64.076
  H       30.506     -69.327      60.753
  H       21.427     -76.632      64.969
  H       24.381     -71.658      62.152
  H       25.720     -72.637      65.590
  H       27.039     -73.100      62.837
  H       22.406     -77.025      67.056
  H       29.017     -72.214      63.846
  H       23.773     -76.070      67.542
  H       27.523     -70.338      65.462
  H       27.264     -68.947      63.425
  H       28.930     -69.549      63.612
  P       29.722     -73.502      65.979
  C       28.120     -75.434      66.688
  O       29.204     -75.016      65.881
  O       30.089     -73.325      67.531
  O       30.854     -73.133      65.078
  H       31.037     -73.504      67.679
  H       27.636     -74.593      67.197
  H       28.485     -76.139      67.438
  H       27.381     -75.937      66.058
  H       25.707     -67.360      60.466
  H       25.642     -68.975      61.130
  H       26.100     -68.734      59.461

 3  4  5  6  7  8  9  10  11  12  23  26  30  31  33  0
 6-311+G(2d,p)
 ****
 35  36  37  38 0
 6-311+G(2d,p)
 ****
 1  2  13  14  15  16  17  18  19  20  21  22  24  25  27  28  29 0
 3-21G
 ****
 32  34  39  40  41  42  43  44  45  46  47  48  49 0
 3-21G
 ****


