%nproc=1
%NoSave
%Mem=1900MB
#P OB98/GEN NMR

erre ene a

0 1
  C     -435.678      -1.716      75.086
  O     -436.895      -1.758      75.799
  P     -437.958      -0.563      75.700
  C     -438.784      -1.825      73.608
  O     -438.501      -0.553      74.186
  C     -439.593      -1.655      72.319
  O     -439.755      -2.967      71.691
  C     -441.000      -1.072      72.568
  O     -441.316       0.074      71.775
  C     -441.902      -2.280      72.364
  O     -443.247      -1.945      72.074
  C     -441.139      -3.060      71.294
  N     -441.588      -4.445      71.179
  C     -442.745      -4.679      70.438
  O     -443.389      -3.807      69.865
  N     -443.186      -5.973      70.412
  C     -442.675      -7.013      71.131
  O     -443.184      -8.124      71.135
  C     -441.477      -6.695      71.928
  C     -440.982      -5.458      71.903
  O     -437.480       0.761      76.188
  O     -439.221      -1.138      76.500
  H     -443.250      -1.403      71.260
  H     -439.594      -1.960      76.140
  H     -444.026      -6.161      69.876
  H     -441.055      -7.495      72.518
  H     -440.106      -5.193      72.482
  H     -441.227      -2.592      70.311
  H     -441.910      -2.851      73.299
  H     -441.101      -0.715      73.598
  H     -439.018      -1.018      71.641
  H     -439.362      -2.416      74.321
  H     -437.844      -2.362      73.418
  P     -442.331       1.235      72.200
  C     -440.509       2.880      73.068
  O     -441.646       2.093      73.367
  O     -443.727       0.790      72.481
  O     -442.297       2.235      70.946
  H     -443.152       2.695      70.874
  H     -439.897       2.966      73.968
  H     -440.830       3.875      72.762
  H     -439.902       2.429      72.273
  H     -435.116      -2.604      75.288
  H     -435.115      -0.859      75.392
  H     -435.881      -1.653      74.037

 3  4  5  6  7  8  9  10  11  12  13  23  28  29  30  31  32 0
 6-311+G(2d,p)
 ****
 33  34 0
 6-311+G(2d,p)
 ****
 1  2  14  15  16  17  18  19  20  21  22  24  25  26  27 0
 3-21G
 ****
 35  36  37  38  39  40  41  42  43  44  45 0
 3-21G
 ****


