%nproc=1
%NoSave
%Mem=1900MB
#P OB98/GEN NMR

erre ene a

0 1
  C      -52.857      76.670    -338.986
  O      -52.288      75.549    -338.289
  P      -51.957      74.206    -339.111
  C      -54.300      73.050    -338.938
  O      -52.926      73.036    -338.585
  C      -54.947      71.701    -338.599
  O      -54.484      70.675    -339.507
  C      -54.610      71.175    -337.207
  O      -55.348      71.840    -336.196
  C      -54.968      69.702    -337.347
  O      -56.381      69.496    -337.163
  C      -54.566      69.415    -338.810
  N      -53.312      68.670    -338.910
  C      -53.269      67.444    -338.256
  O      -54.192      67.010    -337.572
  N      -52.097      66.738    -338.391
  C      -50.975      67.163    -339.036
  O      -49.953      66.493    -339.103
  C      -51.055      68.506    -339.640
  C      -52.199      69.182    -339.546
  O      -50.545      73.772    -338.480
  O      -51.855      74.359    -340.591
  H      -56.526      68.531    -337.167
  H      -50.038      73.267    -339.144
  H      -52.059      65.835    -337.944
  H      -50.178      68.884    -340.143
  H      -52.276      70.174    -339.987
  H      -55.352      68.840    -339.312
  H      -54.453      69.071    -336.613
  H      -53.531      71.268    -337.026
  H      -56.035      71.803    -338.719
  H      -54.399      73.230    -340.010
  H      -54.799      73.861    -338.396
  P      -54.583      73.000    -335.391
  C      -55.268      71.576    -333.308
  O      -55.069      72.855    -333.875
  O      -55.330      74.302    -335.947
  O      -53.107      72.994    -335.615
  H      -56.270      74.131    -336.146
  H      -54.565      70.847    -333.711
  H      -56.293      71.248    -333.510
  H      -55.123      71.644    -332.225
  H      -53.014      77.475    -338.299
  H      -53.792      76.383    -339.419
  H      -52.188      76.986    -339.759

 3  4  5  6  7  8  9  10  11  12  13  23  28  29  30  31  32 0
 6-311+G(2d,p)
 ****
 33  34 0
 6-311+G(2d,p)
 ****
 1  2  14  15  16  17  18  19  20  21  22  24  25  26 0
 3-21G
 ****
 27  35  36  37  38  39  40  41  42  43  44  45 0
 3-21G
 ****


