%nproc=1
%NoSave
%Mem=1900MB
#P OB98/GEN NMR

erre ene a

0 1
  C      973.008    -107.537    -147.203
  O      972.873    -106.718    -146.041
  P      974.076    -106.330    -145.066
  C      973.436    -108.084    -143.205
  O      974.393    -107.600    -144.147
  C      973.815    -109.441    -142.629
  O      975.226    -109.487    -142.326
  C      973.084    -109.672    -141.279
  O      971.750    -110.146    -141.273
  C      974.058    -110.491    -140.436
  O      973.801    -111.891    -140.536
  C      975.428    -110.146    -141.034
  N      979.303    -109.967    -137.727
  C      978.739    -111.058    -138.336
  N      979.226    -112.278    -137.991
  N      977.762    -110.982    -139.215
  C      977.296    -109.715    -139.396
  C      977.762    -108.548    -138.830
  C      978.899    -108.642    -137.904
  O      979.450    -107.707    -137.352
  N      977.031    -107.455    -139.251
  C      976.124    -107.975    -140.044
  N      976.234    -109.342    -140.153
  O      973.936    -105.009    -144.366
  O      975.348    -106.238    -146.057
  H      972.878    -112.048    -140.194
  H      975.944    -105.537    -145.676
  H      980.069    -110.083    -137.078
  H      975.354    -107.406    -140.541
  H      975.999    -111.054    -141.254
  H      973.982    -110.218    -139.372
  H      979.914    -112.406    -137.259
  H      973.020    -108.695    -140.775
  H      978.684    -113.077    -138.265
  H      973.626    -110.252    -143.334
  H      972.483    -108.140    -143.746
  H      973.306    -107.347    -142.397
  P      970.424    -109.266    -141.053
  C      970.206    -110.027    -138.601
  O      970.309    -108.905    -139.501
  O      969.234    -110.309    -141.279
  O      970.298    -108.085    -141.979
  H      968.391    -109.826    -141.439
  H      969.830    -109.678    -137.639
  H      971.188    -110.449    -138.452
  H      969.525    -110.781    -139.025
  H      972.055    -107.642    -147.678
  H      973.374    -108.502    -146.919
  H      973.697    -107.081    -147.883

 3  4  5  6  7  8  9  10  11  12  23  26  30  31 0
 6-311+G(2d,p)
 ****
 33  35  36  37  38 0
 6-311+G(2d,p)
 ****
 1  2  13  14  15  16  17  18  19  20  21  22  24  25 0
 3-21G
 ****
 27  28  29  32  34  39  40  41  42  43  44  45  46  47  48  49 0
 3-21G
 ****


