%nproc=1
%NoSave
%Mem=1900MB
#P OB98/GEN NMR

erre ene a

0 1
  C      481.489     153.046       2.370
  O      482.822     152.658       2.631
  H      480.827     152.202       2.581
  H      481.390     153.312       1.315
  H      481.196     153.891       2.997
  P      483.912     153.824       2.773
  C      484.820     152.423       4.765
  O      484.509     153.716       4.262
  C      486.009     152.494       5.718
  O      487.155     153.036       4.995
  C      485.775     153.381       6.955
  O      486.432     152.787       8.082
  C      486.510     154.658       6.596
  O      486.884     155.412       7.744
  C      487.693     154.097       5.811
  N      492.007     155.263       3.528
  C      491.579     154.074       4.089
  N      492.458     153.052       4.101
  N      490.391     153.906       4.602
  C      489.602     155.003       4.509
  C      489.907     156.237       3.982
  C      491.234     156.418       3.432
  O      491.674     157.453       2.942
  N      488.855     157.109       4.134
  C      487.927     156.405       4.767
  N      488.337     155.125       5.018
  O      483.008     155.145       2.827
  O      484.927     153.890       1.685
  H      487.349     154.813       8.364
  H      482.933     155.531       1.934
  H      492.940     155.345       3.164
  H      486.964     156.782       5.080
  H      488.464     153.669       6.465
  H      485.879     155.289       5.957
  H      493.384     153.093       3.697
  H      484.719     153.547       7.188
  H      492.147     152.161       4.475
  H      486.280     151.474       6.022
  H      485.072     151.765       3.927
  H      483.942     152.017       5.277
  P      485.520     152.181       9.251
  C      486.398     149.855       8.487
  O      485.299     150.615       8.970
  O      484.076     152.810       8.951
  O      485.989     152.521      10.624
  H      483.610     152.978       9.790
  H      486.096     148.838       8.350
  H      487.199     149.897       9.195
  H      486.727     150.258       7.552

 6  7  8  9  10  11  12  13  14  15  26  29  33  34 0
 6-311+G(2d,p)
 ****
 36  38  39  40  41 0
 6-311+G(2d,p)
 ****
 1  2  3  4  5  16  17  18  19  20  21  22  23  24  25 0
 3-21G
 ****
 27  28  30  31  32  35  37  42  43  44  45  46  47 0
 3-21G
 ****
 48  49 0
 3-21G
 ****


