%nproc=1
%NoSave
%Mem=1900MB
#P OB98/GEN NMR

erre ene a

0 1
  C      134.348    -471.651    1422.810
  O      133.904    -471.138    1421.573
  P      133.055    -469.774    1421.546
  C      131.236    -468.706    1423.003
  O      131.838    -469.911    1422.575
  C      130.069    -469.010    1423.958
  O      130.531    -469.760    1425.122
  C      129.389    -467.750    1424.512
  O      128.533    -467.167    1423.532
  C      128.664    -468.327    1425.746
  O      127.413    -468.951    1425.331
  C      129.656    -469.407    1426.217
  N      130.170    -469.658    1431.296
  C      129.192    -470.066    1430.436
  N      129.115    -469.950    1429.131
  C      130.164    -469.272    1428.651
  C      131.219    -468.740    1429.370
  C      131.220    -468.979    1430.755
  N      132.250    -468.615    1431.610
  N      132.094    -468.060    1428.544
  C      131.583    -468.191    1427.328
  N      130.450    -468.951    1427.341
  O      132.678    -469.301    1420.181
  O      134.026    -468.708    1422.260
  H      126.964    -469.239    1426.141
  H      134.234    -467.979    1421.626
  H      128.361    -470.620    1430.934
  H      132.014    -467.762    1426.432
  H      129.149    -470.327    1426.507
  H      128.415    -467.571    1426.487
  H      130.133    -467.040    1424.859
  H      129.347    -469.643    1423.427
  H      130.856    -468.173    1422.122
  H      132.225    -468.964    1432.559
  H      133.165    -468.374    1431.204
  H      131.987    -468.071    1423.497
  P      127.833    -465.772    1423.849
  C      126.225    -464.926    1425.714
  O      126.683    -466.038    1424.942
  O      127.391    -464.975    1422.650
  O      128.931    -464.966    1424.690
  H      128.864    -464.007    1424.527
  H      126.972    -464.706    1426.482
  H      125.304    -465.177    1426.162
  H      126.112    -464.053    1425.024
  H      134.893    -472.557    1422.645
  H      133.504    -471.852    1423.437
  H      134.983    -470.934    1423.286

 3  4  5  6  7  8  9  10  11  12  22  25  29  30  31  32 0
 6-311+G(2d,p)
 ****
 33  36  37 0
 6-311+G(2d,p)
 ****
 1  2  13  14  15  16  17  18  19  20  21  23  24  26 0
 3-21G
 ****
 27  28  34  35  38  39  40  41  42  43  44  45  46  47  48 0
 3-21G
 ****


