%nproc=1
%NoSave
%Mem=1900MB
#P OB98/GEN NMR

erre ene a

0 1
  C      293.932     607.101    1088.494
  O      294.748     607.176    1089.674
  P      295.078     605.805    1090.458
  C      297.649     605.653    1090.156
  O      296.569     605.918    1091.067
  C      298.924     606.365    1090.629
  O      298.821     607.797    1090.343
  C      299.194     606.279    1092.160
  O      299.949     605.170    1092.638
  C      300.056     607.526    1092.365
  O      301.430     607.230    1092.034
  C      299.501     608.542    1091.360
  N      298.878     611.892    1095.175
  C      299.911     611.109    1094.828
  N      299.999     610.244    1093.799
  C      298.863     610.240    1093.074
  C      297.726     610.992    1093.300
  C      297.751     611.859    1094.417
  N      296.690     612.656    1094.783
  N      296.752     610.727    1092.351
  C      297.295     609.810    1091.583
  N      298.586     609.486    1091.967
  O      294.768     604.544    1089.718
  O      294.169     605.940    1091.777
  H      301.425     606.907    1091.108
  H      293.821     605.056    1092.000
  H      300.786     611.175    1095.469
  H      296.804     609.348    1090.729
  H      300.282     609.126    1090.883
  H      300.035     607.843    1093.411
  H      298.260     606.372    1092.711
  H      299.794     605.954    1090.079
  H      297.384     606.006    1089.156
  H      296.773     613.217    1095.611
  H      295.820     612.602    1094.259
  H      297.767     604.588    1090.090
  P      299.931     604.777    1094.202
  C      298.481     602.617    1093.836
  O      299.709     603.176    1094.228
  O      298.968     605.559    1095.040
  O      301.468     604.936    1094.605
  H      302.067     604.294    1094.201
  H      298.593     601.539    1093.723
  H      298.142     603.040    1092.882
  H      297.722     602.817    1094.617
  H      293.801     608.082    1088.088
  H      292.977     606.689    1088.746
  H      294.410     606.476    1087.769

 3  4  5  6  7  8  9  10  11  12  22  25  29  30  31  32 0
 6-311+G(2d,p)
 ****
 33  36  37 0
 6-311+G(2d,p)
 ****
 1  2  13  14  15  16  17  18  19  20  21  23  24  26 0
 3-21G
 ****
 27  28  34  35  38  39  40  41  42  43  44  45  46  47  48 0
 3-21G
 ****


