%nproc=1
%NoSave
%Mem=1900MB
#P OB98/GEN NMR

erre ene a

0 1
  C     -154.852     186.961    -428.273
  O     -154.468     186.071    -427.238
  P     -153.869     186.621    -425.851
  C     -154.554     184.576    -424.430
  O     -153.481     185.310    -425.018
  C     -154.032     183.241    -423.876
  O     -153.720     182.354    -424.974
  C     -152.744     183.356    -423.059
  O     -153.017     183.869    -421.764
  C     -152.240     181.919    -423.115
  O     -152.951     181.102    -422.158
  C     -152.631     181.494    -424.550
  N     -151.504     181.573    -425.481
  C     -150.693     180.433    -425.558
  O     -150.927     179.433    -424.885
  N     -149.642     180.446    -426.449
  C     -149.399     181.510    -427.167
  N     -148.390     181.431    -428.071
  C     -150.210     182.733    -427.072
  C     -151.233     182.704    -426.225
  O     -154.752     187.590    -425.124
  O     -152.440     187.221    -426.244
  H     -152.685     181.414    -421.276
  H     -152.466     188.173    -426.517
  H     -149.968     183.596    -427.688
  H     -151.884     183.556    -426.118
  H     -153.032     180.477    -424.549
  H     -151.175     181.827    -422.905
  H     -152.031     184.021    -423.564
  H     -154.826     182.781    -423.280
  H     -147.978     180.514    -428.224
  H     -155.301     184.368    -425.193
  H     -148.320     182.073    -428.853
  H     -155.010     185.169    -423.634
  P     -151.844     184.678    -421.024
  C     -153.334     186.268    -419.593
  O     -152.464     185.148    -419.611
  O     -151.733     186.031    -421.878
  O     -150.541     183.946    -420.944
  H     -150.968     185.981    -422.487
  H     -153.836     186.297    -418.627
  H     -154.074     186.181    -420.387
  H     -152.749     187.190    -419.726
  H     -155.223     186.401    -429.106
  H     -154.005     187.538    -428.580
  H     -155.618     187.616    -427.914

 3  4  5  6  7  8  9  10  11  12  13  23  27  28  29  30  32 0
 6-311+G(2d,p)
 ****
 34  35 0
 6-311+G(2d,p)
 ****
 1  2  14  15  16  17  18  19  20  21  22  24  25  26 0
 3-21G
 ****
 31  33  36  37  38  39  40  41  42  43  44  45  46 0
 3-21G
 ****


