%nproc=1
%NoSave
%Mem=1900MB
#P OB98/GEN NMR

erre ene a

0 1
  C     -312.137     424.377     -50.561
  O     -311.598     423.392     -51.445
  P     -312.653     422.484     -52.244
  C     -311.341     422.664     -54.473
  O     -311.901     421.802     -53.493
  C     -309.962     423.184     -54.055
  O     -309.082     422.087     -53.678
  C     -309.247     423.976     -55.156
  O     -308.479     424.999     -54.518
  C     -308.296     422.954     -55.750
  O     -307.227     423.587     -56.446
  C     -307.894     422.172     -54.490
  N     -307.343     420.849     -54.781
  C     -305.965     420.766     -54.998
  O     -305.276     421.792     -55.007
  N     -305.403     419.538     -55.239
  C     -306.163     418.490     -55.311
  N     -305.549     417.302     -55.557
  C     -307.628     418.539     -55.150
  C     -308.140     419.736     -54.887
  O     -313.626     423.555     -52.924
  O     -313.410     421.536     -51.368
  H     -306.685     422.889     -56.873
  H     -314.556     423.322     -52.746
  H     -308.221     417.636     -55.239
  H     -309.205     419.875     -54.749
  H     -307.138     422.729     -53.918
  H     -308.835     422.301     -56.450
  H     -309.928     424.421     -55.883
  H     -310.091     423.821     -53.170
  H     -304.538     417.307     -55.652
  H     -312.005     423.513     -54.647
  H     -306.040     416.423     -55.637
  H     -311.285     422.124     -55.424
  P     -309.039     426.501     -54.550
  C     -308.540     427.101     -52.102
  O     -308.164     427.287     -53.452
  O     -310.439     426.337     -53.780
  O     -309.216     427.168     -55.871
  H     -310.922     427.184     -53.800
  H     -307.797     427.585     -51.463
  H     -308.577     426.033     -51.857
  H     -309.515     427.565     -51.918
  H     -311.337     424.912     -50.092
  H     -312.732     423.897     -49.812
  H     -312.745     425.060     -51.116

 3  4  5  6  7  8  9  10  11  12  13  21  23  27  28  29  30  32 0
 6-311+G(2d,p)
 ****
 34  35 0
 6-311+G(2d,p)
 ****
 1  2  14  15  16  17  18  19  20  22  24  25  26 0
 3-21G
 ****
 31  33  36  37  38  39  40  41  42  43  44  45  46 0
 3-21G
 ****


