%nproc=1
%NoSave
%Mem=1900MB
#P OB98/GEN NMR

erre ene a

0 1
  C      384.261    -899.080      61.716
  O      384.491    -898.140      60.704
  H      383.858    -900.000      61.258
  H      383.527    -898.710      62.438
  H      385.196    -899.340      62.227
  P      385.231    -896.760      61.095
  C      382.944    -895.690      61.595
  O      384.174    -895.570      60.884
  C      382.184    -894.370      61.519
  O      382.773    -893.390      62.382
  C      382.187    -893.740      60.126
  O      381.310    -894.410      59.236
  C      381.798    -892.300      60.456
  O      380.382    -892.180      60.607
  C      382.507    -892.100      61.809
  N      383.752    -891.320      61.661
  C      383.612    -889.940      61.627
  O      382.542    -889.360      61.725
  N      384.771    -889.230      61.410
  C      386.000    -889.760      61.096
  O      386.926    -889.110      60.668
  C      386.080    -891.240      61.199
  C      384.970    -891.920      61.470
  O      386.564    -896.550      60.438
  O      385.367    -896.850      62.690
  H      386.283    -897.110      62.921
  H      380.004    -892.350      59.715
  H      384.670    -888.230      61.344
  H      387.058    -891.690      61.041
  H      385.011    -893.010      61.519
  H      381.857    -891.570      62.512
  H      382.121    -891.620      59.673
  H      383.201    -893.740      59.715
  H      381.145    -894.550      61.856
  H      383.168    -895.920      62.646
  H      382.352    -896.520      61.164
  P      381.872    -895.190      57.958
  C      382.621    -893.170      56.547
  O      381.692    -894.230      56.674
  O      381.378    -896.580      57.780
  O      383.466    -895.170      58.170
  H      383.809    -896.080      58.051
  H      382.401    -892.607      55.664
  H      383.611    -893.570      56.478
  H      382.553    -892.532      57.403

 6  7  8  9  10  11  12  13  14  15  16  27  31  32  33  34  35 0
 6-311+G(2d,p)
 ****
 36  37 0
 6-311+G(2d,p)
 ****
 1  2  3  4  5  17  18  19  20  21  22  23  24  25 0
 3-21G
 ****
 26  28  29  30  38  39  40  41  42  43  44  45 0
 3-21G
 ****


