%nproc=1
%NoSave
%Mem=1900MB
#P OB98/GEN NMR

erre ene a

0 1
  C      142.078     254.718    -311.854
  O      142.225     254.568    -310.455
  H      142.518     253.856    -312.363
  H      141.011     254.759    -312.093
  H      142.553     255.639    -312.200
  P      143.693     254.783    -309.846
  C      143.873     257.343    -309.447
  O      143.598     256.069    -308.884
  C      143.712     258.437    -308.392
  O      144.301     259.665    -308.908
  C      142.254     258.740    -308.009
  O      142.199     258.997    -306.603
  C      141.960     260.026    -308.758
  O      140.926     260.792    -308.147
  C      143.323     260.708    -308.734
  N      140.781     264.447    -311.059
  C      140.576     263.810    -309.888
  N      141.339     262.857    -309.312
  C      142.442     262.627    -310.043
  C      142.792     263.201    -311.251
  C      141.891     264.147    -311.775
  N      142.057     264.752    -313.000
  N      143.975     262.662    -311.718
  C      144.316     261.760    -310.820
  N      143.420     261.700    -309.790
  O      144.514     255.324    -311.112
  O      144.325     253.576    -309.243
  H      141.251     261.136    -307.293
  H      144.871     254.570    -311.615
  H      139.678     264.095    -309.346
  H      145.177     261.107    -310.878
  H      143.527     261.214    -307.782
  H      141.653     259.791    -309.785
  H      141.556     257.935    -308.267
  H      144.293     258.153    -307.506
  H      143.167     257.533    -310.263
  H      141.305     265.331    -313.340
  H      142.817     264.454    -313.595
  H      144.891     257.348    -309.850
  P      141.502     257.889    -305.677
  C      143.156     255.879    -305.662
  O      142.646     257.016    -304.975
  O      140.859     256.876    -306.738
  O      140.468     258.440    -304.748
  H      140.036     256.494    -306.384
  H      143.908     255.408    -305.063
  H      143.583     256.187    -306.594
  H      142.361     255.187    -305.846

 6  7  8  9  10  11  12  13  14  15  25  28  32  33  34  35 0
 6-311+G(2d,p)
 ****
 36  39  40 0
 6-311+G(2d,p)
 ****
 1  2  3  4  5  16  17  18  19  20  21  22  23  24 0
 3-21G
 ****
 26  27  29  30  31  37  38  41  42  43  44  45  46  47 0
 3-21G
 ****
 48 0
 3-21G
 ****


