%nproc=1
%NoSave
%Mem=1900MB
#P OB98/GEN NMR

erre ene a

0 1
  C     -124.165    -952.784      98.837
  O     -123.842    -951.706      97.995
  H     -123.430    -952.870      99.646
  H     -125.152    -952.610      99.275
  H     -124.196    -953.718      98.265
  P     -122.402    -951.752      97.273
  C     -123.235    -950.955      94.948
  O     -122.427    -950.661      96.090
  C     -124.139    -949.764      94.645
  O     -125.241    -949.756      95.594
  C     -123.451    -948.389      94.694
  O     -123.580    -947.711      93.448
  C     -124.231    -947.606      95.746
  O     -124.445    -946.241      95.395
  C     -125.539    -948.380      95.847
  N     -128.347    -945.228      98.728
  C     -128.218    -945.332      97.383
  N     -127.538    -946.264      96.672
  C     -126.975    -947.171      97.497
  C     -127.043    -947.208      98.883
  C     -127.747    -946.162      99.510
  N     -127.845    -946.032     100.872
  N     -126.332    -948.297      99.366
  C     -125.802    -948.868      98.311
  N     -126.151    -948.216      97.156
  O     -122.428    -953.163      96.500
  O     -121.230    -951.655      98.196
  H     -123.565    -945.838      95.263
  H     -121.601    -953.643      96.670
  H     -128.712    -944.562      96.806
  H     -125.149    -949.718      98.320
  H     -126.273    -948.050      95.088
  H     -123.682    -947.642      96.698
  H     -122.386    -948.468      94.967
  H     -124.583    -949.921      93.646
  H     -123.856    -951.835      95.161
  H     -128.269    -945.200     101.234
  H     -127.322    -946.676     101.459
  H     -122.584    -951.177      94.103
  P     -122.256    -946.966      92.879
  C     -122.678    -947.537      90.381
  O     -122.562    -946.525      91.370
  O     -121.211    -948.172      92.720
  O     -121.747    -945.895      93.790
  H     -120.299    -947.832      92.801
  H     -122.882    -947.087      89.432
  H     -123.477    -948.199      90.640
  H     -121.762    -948.088      90.325

 6  7  8  9  10  11  12  13  14  15  25  28  32  33  34  35 0
 6-311+G(2d,p)
 ****
 36  39  40 0
 6-311+G(2d,p)
 ****
 1  2  3  4  5  16  17  18  19  20  21  22  23  24 0
 3-21G
 ****
 26  27  29  30  31  37  38  41  42  43  44  45  46  47  48 0
 3-21G
 ****


