%nproc=1
%NoSave
%Mem=1900MB
#P OB98/GEN NMR

erre ene a

0 1
  C      676.997     109.195      26.070
  O      676.399     109.226      24.785
  H      678.051     108.934      25.961
  H      676.505     108.431      26.685
  H      676.915     110.172      26.552
  P      674.912     109.816      24.703
  C      673.837     107.524      24.011
  O      674.089     108.885      23.681
  C      672.537     107.057      23.355
  O      671.424     107.869      23.785
  C      672.522     107.197      21.847
  O      673.333     106.232      21.197
  C      671.035     107.015      21.559
  O      670.678     105.631      21.469
  C      670.386     107.676      22.798
  N      669.708     108.918      22.453
  C      668.485     108.768      21.786
  O      668.046     107.643      21.552
  N      667.822     109.895      21.372
  C      668.347     111.066      21.579
  N      667.650     112.141      21.118
  C      669.630     111.271      22.276
  C      670.256     110.161      22.682
  O      675.119     111.169      23.876
  O      674.241     110.000      26.018
  H      670.776     105.261      22.371
  H      675.639     111.056      23.065
  H      670.017     112.263      22.431
  H      671.211     110.213      23.203
  H      669.644     106.998      23.247
  H      670.754     107.479      20.609
  H      672.804     108.219      21.550
  H      672.351     106.021      23.663
  H      666.798     111.958      20.599
  H      673.779     107.394      25.099
  H      667.998     113.091      21.153
  H      674.681     106.928      23.653
  P      674.193     106.610      19.899
  C      672.759     104.989      18.513
  O      674.079     105.370      18.885
  O      675.598     107.054      20.161
  O      673.293     107.723      19.175
  H      672.398     107.421      18.923
  H      672.804     104.159      17.840
  H      672.272     105.812      18.033
  H      672.209     104.710      19.387

 6  7  8  9  10  11  12  13  14  15  16  26  30  31  32  33  35 0
 6-311+G(2d,p)
 ****
 37  38 0
 6-311+G(2d,p)
 ****
 1  2  3  4  5  17  18  19  20  21  22  23  24  25 0
 3-21G
 ****
 27  28  29  34  36  39  40  41  42  43  44  45  46 0
 3-21G
 ****


