%nproc=1
%NoSave
%Mem=1900MB
#P OB98/GEN NMR

erre ene a

0 1
  C     -222.953      31.978      47.923
  O     -223.621      31.771      49.150
  H     -221.889      32.124      48.124
  H     -223.341      32.874      47.430
  H     -223.068      31.112      47.264
  P     -225.166      31.348      49.125
  C     -227.331      32.277      48.069
  O     -225.928      32.431      48.223
  C     -228.056      33.601      48.343
  O     -228.117      33.806      49.789
  C     -227.364      34.839      47.740
  O     -228.392      35.794      47.445
  C     -226.512      35.290      48.914
  O     -225.968      36.572      48.728
  C     -227.527      35.099      50.049
  N     -226.976      35.152      51.398
  C     -227.570      36.023      52.305
  O     -228.531      36.751      52.051
  N     -227.014      36.047      53.558
  C     -225.961      35.292      53.986
  O     -225.527      35.333      55.128
  C     -225.372      34.396      52.979
  C     -225.901      34.361      51.753
  O     -225.787      31.084      50.457
  O     -225.185      30.041      48.199
  H     -225.246      29.243      48.760
  H     -225.335      36.544      47.977
  H     -227.435      36.671      54.230
  H     -224.527      33.790      53.281
  H     -225.493      33.703      50.993
  H     -228.329      35.839      49.960
  H     -225.658      34.617      49.036
  H     -226.800      34.616      46.831
  H     -229.091      33.516      47.992
  H     -227.671      31.515      48.779
  H     -227.545      31.936      47.051
  P     -229.162      35.856      46.037
  C     -228.730      36.828      43.675
  O     -228.201      36.581      44.973
  O     -230.528      36.459      46.119
  O     -229.231      34.340      45.524
  H     -230.000      34.229      44.935
  H     -227.989      37.312      43.074
  H     -229.591      37.458      43.755
  H     -229.008      35.900      43.220

 6  7  8  9  10  11  12  13  14  15  16  27  31  32  33  34  35 0
 6-311+G(2d,p)
 ****
 36  37 0
 6-311+G(2d,p)
 ****
 1  2  3  4  5  17  18  19  20  21  22  23  24  25 0
 3-21G
 ****
 26  28  29  30  38  39  40  41  42  43  44  45 0
 3-21G
 ****


