%nproc=1
%NoSave
%Mem=1900MB
#P OB98/GEN NMR

erre ene a

0 1
  C     -931.649     639.330    -537.906
  O     -931.620     638.999    -536.522
  P     -932.083     640.103    -535.458
  C     -934.231     639.091    -534.293
  O     -933.654     639.995    -535.216
  C     -935.231     638.185    -535.019
  O     -934.545     637.335    -535.967
  C     -936.012     637.272    -534.085
  O     -937.174     637.903    -533.566
  C     -936.318     636.090    -534.980
  O     -937.417     636.399    -535.861
  C     -935.002     635.964    -535.783
  N     -933.898     635.172    -535.192
  C     -933.978     633.781    -535.178
  O     -934.915     633.136    -535.645
  N     -932.904     633.123    -534.632
  C     -931.724     633.690    -534.251
  O     -930.779     633.046    -533.818
  C     -931.637     635.145    -534.417
  C     -932.711     635.807    -534.855
  O     -931.920     641.483    -536.249
  O     -931.304     640.095    -534.182
  H     -937.216     637.252    -536.284
  H     -931.229     642.036    -535.831
  H     -932.972     632.125    -534.555
  H     -930.705     635.629    -534.172
  H     -932.656     636.887    -534.983
  H     -935.190     635.553    -536.779
  H     -936.634     635.223    -534.407
  H     -935.367     636.915    -533.276
  H     -935.931     638.825    -535.583
  H     -934.735     639.628    -533.482
  H     -933.445     638.492    -533.824
  P     -937.215     638.347    -532.027
  C     -937.365     640.903    -532.037
  O     -936.502     639.781    -531.975
  O     -936.723     637.347    -531.042
  O     -938.759     638.714    -531.794
  H     -939.243     637.949    -531.401
  H     -936.778     641.810    -531.827
  H     -938.164     640.825    -531.294
  H     -937.794     640.988    -533.032
  H     -931.313     638.492    -538.480
  H     -931.007     640.167    -538.086
  H     -932.649     639.580    -538.192

 3  4  5  6  7  8  9  10  11  12  13  23  28  29  30  31  32 0
 6-311+G(2d,p)
 ****
 33  34 0
 6-311+G(2d,p)
 ****
 1  2  14  15  16  17  18  19  20  21  22  24  25  26  27 0
 3-21G
 ****
 35  36  37  38  39  40  41  42  43  44  45 0
 3-21G
 ****


