%nproc=1
%NoSave
%Mem=1900MB
#P OB98/GEN NMR

erre ene a

0 1
  C     1103.210    -900.543    -231.897
  O     1102.464    -901.214    -232.899
  P     1102.328    -900.614    -234.358
  C     1102.202    -902.940    -235.595
  O     1101.601    -901.691    -235.301
  C     1101.407    -903.622    -236.714
  O     1101.275    -902.735    -237.848
  C     1102.099    -904.880    -237.201
  O     1101.577    -906.032    -236.522
  C     1101.797    -904.888    -238.686
  O     1100.487    -905.401    -238.937
  C     1101.862    -903.359    -239.007
  N     1103.176    -902.760    -239.248
  C     1103.904    -903.107    -240.384
  O     1103.483    -903.880    -241.245
  N     1105.142    -902.537    -240.503
  C     1105.703    -901.637    -239.619
  O     1106.884    -901.321    -239.611
  C     1104.791    -901.121    -238.605
  C     1103.599    -901.697    -238.442
  O     1103.837    -900.617    -234.909
  O     1101.711    -899.254    -234.450
  H     1100.440    -906.296    -238.587
  H     1104.242    -899.735    -234.820
  H     1105.727    -902.886    -241.264
  H     1105.137    -900.304    -237.968
  H     1102.921    -901.352    -237.664
  H     1101.234    -903.135    -239.875
  H     1102.495    -905.530    -239.234
  H     1103.188    -904.811    -237.052
  H     1100.410    -903.854    -236.340
  H     1102.233    -903.557    -234.711
  H     1103.250    -902.779    -235.915
  P     1102.584    -907.104    -235.905
  C     1100.980    -907.700    -233.986
  O     1101.661    -908.167    -235.143
  O     1103.722    -906.538    -235.090
  O     1103.127    -907.896    -237.180
  H     1103.997    -907.534    -237.468
  H     1100.260    -908.445    -233.681
  H     1100.460    -906.757    -234.209
  H     1101.694    -907.546    -233.176
  H     1103.178    -901.109    -230.990
  H     1102.789    -899.574    -231.728
  H     1104.226    -900.440    -232.218

 3  4  5  6  7  8  9  10  11  12  13  23  28  29  30  31  32 0
 6-311+G(2d,p)
 ****
 33  34 0
 6-311+G(2d,p)
 ****
 1  2  14  15  16  17  18  19  20  21  22  24  25  26  27 0
 3-21G
 ****
 35  36  37  38  39  40  41  42  43  44  45 0
 3-21G
 ****


