%nproc=1
%NoSave
%Mem=1900MB
#P OB98/GEN NMR

erre ene a

0 1
  C     -508.961      71.030    -661.310
  O     -509.088      69.820    -660.589
  H     -509.950      71.407    -661.589
  H     -508.475      71.771    -660.667
  H     -508.351      70.882    -662.203
  P     -509.780      68.592    -661.359
  C     -511.224      68.486    -659.198
  O     -510.568      67.758    -660.232
  C     -512.408      67.675    -658.682
  O     -513.358      67.447    -659.743
  C     -512.039      66.288    -658.147
  O     -511.534      66.337    -656.824
  C     -513.393      65.609    -658.204
  O     -514.205      66.035    -657.091
  C     -513.969      66.138    -659.524
  N     -515.883      64.193    -663.852
  C     -516.420      64.994    -662.909
  N     -515.851      65.464    -661.777
  C     -514.586      65.031    -661.681
  C     -513.893      64.200    -662.550
  C     -514.603      63.780    -663.694
  N     -514.066      62.943    -664.651
  N     -512.626      63.939    -662.082
  C     -512.529      64.623    -660.962
  N     -513.690      65.292    -660.668
  O     -508.544      67.633    -661.719
  O     -510.591      68.954    -662.558
  H     -515.031      65.521    -657.125
  H     -508.788      67.033    -662.451
  H     -517.449      65.299    -663.085
  H     -511.648      64.673    -660.331
  H     -515.054      66.291    -659.474
  H     -513.326      64.519    -658.143
  H     -511.350      65.774    -658.825
  H     -512.909      68.272    -657.899
  H     -511.584      69.437    -659.600
  H     -514.704      62.567    -665.330
  H     -513.164      62.514    -664.461
  H     -510.511      68.686    -658.388
  P     -509.951      66.180    -656.632
  C     -510.795      65.658    -654.228
  O     -509.712      66.093    -655.049
  O     -509.389      67.632    -657.012
  O     -509.323      65.099    -657.454
  H     -508.474      67.590    -657.330
  H     -510.486      65.652    -653.204
  H     -511.088      64.671    -654.518
  H     -511.623      66.325    -654.347

 6  7  8  9  10  11  12  13  14  15  25  28  32  33  34  35 0
 6-311+G(2d,p)
 ****
 36  39  40 0
 6-311+G(2d,p)
 ****
 1  2  3  4  5  16  17  18  19  20  21  22  23  24 0
 3-21G
 ****
 26  27  29  30  31  37  38  41  42  43  44  45  46  47 0
 3-21G
 ****
 48 0
 3-21G
 ****


