%nproc=1
%NoSave
%Mem=1900MB
#P OB98/GEN NMR

erre ene a

0 1
  C      293.747      46.830      34.689
  O      294.327      47.974      35.292
  P      295.141      47.781      36.657
  C      292.820      48.107      37.773
  O      294.223      48.314      37.861
  C      292.169      48.190      39.156
  O      290.727      48.119      39.020
  C      292.593      47.061      40.103
  O      292.633      47.561      41.449
  C      291.443      46.081      40.019
  O      291.376      45.252      41.178
  C      290.262      47.036      39.853
  N      285.325      46.119      40.419
  C      286.126      47.034      41.069
  N      285.546      47.741      42.064
  N      287.377      47.245      40.766
  C      287.826      46.461      39.753
  C      287.123      45.529      39.023
  C      285.741      45.297      39.376
  O      284.987      44.482      38.858
  N      287.906      44.960      38.053
  C      289.093      45.513      38.221
  N      289.103      46.402      39.263
  O      296.294      48.887      36.546
  O      295.723      46.419      36.848
  H      290.867      44.455      40.927
  H      297.145      48.458      36.341
  H      284.364      45.984      40.694
  H      289.975      45.285      37.635
  H      289.957      47.467      40.814
  H      291.565      45.433      39.142
  H      284.606      47.578      42.389
  H      293.556      46.601      39.857
  H      286.125      48.386      42.586
  H      292.403      49.170      39.593
  H      292.631      47.119      37.351
  H      292.380      48.856      37.106
  P      294.027      47.374      42.225
  C      293.850      44.997      41.181
  O      294.303      45.798      42.255
  O      293.650      47.724      43.741
  O      295.137      48.223      41.705
  H      294.440      48.033      44.223
  H      294.716      44.550      40.683
  H      293.277      45.572      40.447
  H      293.218      44.198      41.577
  H      293.241      47.118      33.791
  H      293.048      46.386      35.366
  H      294.515      46.123      34.454

 3  4  5  6  7  8  9  10  11  12  23  26  30  31 0
 6-311+G(2d,p)
 ****
 33  35  36  37  38 0
 6-311+G(2d,p)
 ****
 1  2  13  14  15  16  17  18  19  20  21  22  24  25 0
 3-21G
 ****
 27  28  29  32  34  39  40  41  42  43  44  45  46  47  48  49 0
 3-21G
 ****


