%nproc=1
%NoSave
%Mem=1900MB
#P OB98/GEN NMR

erre ene a

0 1
  C     -141.922     958.458    -345.434
  O     -141.298     957.619    -346.400
  P     -140.418     956.393    -345.863
  C     -138.035     956.171    -344.897
  O     -139.123     957.042    -345.157
  C     -136.809     956.959    -344.434
  O     -136.261     957.683    -345.591
  C     -137.093     957.999    -343.347
  O     -136.051     957.951    -342.344
  C     -136.965     959.340    -344.073
  O     -136.621     960.399    -343.186
  C     -135.883     958.989    -345.109
  N     -133.864     963.398    -346.551
  C     -133.578     962.605    -345.440
  N     -132.661     963.087    -344.577
  N     -134.144     961.448    -345.215
  C     -135.022     961.073    -346.186
  C     -135.372     961.753    -347.312
  C     -134.787     963.058    -347.535
  O     -135.058     963.840    -348.439
  N     -136.279     961.033    -348.070
  C     -136.471     959.919    -347.384
  N     -135.763     959.918    -346.212
  O     -139.829     955.767    -347.223
  O     -141.157     955.383    -345.065
  H     -136.477     961.185    -343.745
  H     -140.075     954.811    -347.265
  H     -133.420     964.293    -346.675
  H     -137.134     959.101    -347.686
  H     -134.908     958.906    -344.627
  H     -137.924     959.570    -344.562
  H     -132.162     963.969    -344.703
  H     -138.079     957.891    -342.855
  H     -132.416     962.528    -343.774
  H     -136.038     956.261    -344.115
  H     -137.788     955.609    -345.810
  H     -138.320     955.451    -344.110
  P     -136.272     958.869    -341.063
  C     -135.205     961.089    -340.207
  O     -135.280     960.122    -341.219
  O     -135.594     958.015    -339.871
  O     -137.709     959.189    -340.779
  H     -135.987     958.253    -339.013
  H     -135.712     960.779    -339.298
  H     -135.634     962.024    -340.574
  H     -134.148     961.267    -339.965
  H     -142.472     959.228    -345.933
  H     -141.174     958.901    -344.810
  H     -142.589     957.875    -344.833

 3  4  5  6  7  8  9  10  11  12  23  26  30  31  33  0
 6-311+G(2d,p)
 ****
 35  36  37  38 0
 6-311+G(2d,p)
 ****
 1  2  13  14  15  16  17  18  19  20  21  22  24  25  27  28  29 0
 3-21G
 ****
 32  34  39  40  41  42  43  44  45  46  47  48  49 0
 3-21G
 ****


