%nproc=1
%NoSave
%Mem=1900MB
#P OB98/GEN NMR

erre ene a

0 1
  C      -79.203    -232.954     -49.639
  O      -78.670    -232.356     -50.808
  P      -79.558    -231.323     -51.652
  C      -79.547    -232.934     -53.697
  O      -80.306    -232.167     -52.788
  C      -79.804    -232.500     -55.143
  O      -78.955    -233.293     -56.011
  C      -81.234    -232.737     -55.640
  O      -81.451    -231.930     -56.803
  C      -81.187    -234.193     -56.036
  O      -82.245    -234.541     -56.933
  C      -79.754    -234.353     -56.596
  N      -79.176    -235.674     -56.274
  C      -79.679    -236.766     -56.980
  O      -80.504    -236.658     -57.886
  N      -79.260    -237.995     -56.535
  C      -78.457    -238.221     -55.454
  O      -78.340    -239.298     -54.899
  C      -77.778    -237.024     -54.914
  C      -78.184    -235.819     -55.320
  O      -78.453    -230.486     -52.459
  O      -80.438    -230.431     -50.833
  H      -83.081    -234.518     -56.403
  H      -78.250    -229.656     -51.997
  H      -79.737    -238.794     -56.956
  H      -77.020    -237.176     -54.159
  H      -77.735    -234.921     -54.897
  H      -79.738    -234.233     -57.687
  H      -81.311    -234.815     -55.137
  H      -82.006    -232.535     -54.889
  H      -79.525    -231.451     -55.265
  H      -79.790    -233.997     -53.565
  H      -78.477    -232.830     -53.481
  P      -82.651    -230.866     -56.767
  C      -84.261    -232.605     -57.777
  O      -84.009    -231.727     -56.692
  O      -82.623    -229.805     -57.818
  O      -82.548    -230.250     -55.286
  H      -83.030    -229.397     -55.251
  H      -84.848    -233.451     -57.414
  H      -83.329    -232.983     -58.218
  H      -84.838    -232.073     -58.542
  H      -78.475    -233.610     -49.210
  H      -80.080    -233.512     -49.892
  H      -79.457    -232.192     -48.932

 3  4  5  6  7  8  9  10  11  12  13  23  28  29  30  31  32 0
 6-311+G(2d,p)
 ****
 33  34 0
 6-311+G(2d,p)
 ****
 1  2  14  15  16  17  18  19  20  21  22  24  25  26  27 0
 3-21G
 ****
 35  36  37  38  39  40  41  42  43  44  45 0
 3-21G
 ****


