%nproc=1
%NoSave
%Mem=1900MB
#P OB98/GEN NMR

erre ene a

0 1
  C      -25.761     -78.859      48.996
  O      -26.092     -80.211      49.250
  H      -24.674     -78.776      48.907
  H      -26.098     -78.215      49.812
  H      -26.215     -78.535      48.055
  P      -27.597     -80.551      49.696
  C      -29.012     -80.005      51.784
  O      -27.698     -80.096      51.237
  C      -28.995     -79.320      53.151
  O      -28.576     -77.944      53.027
  C      -30.356     -79.252      53.830
  O      -30.882     -80.498      54.223
  C      -30.128     -78.174      54.880
  O      -29.500     -78.685      56.056
  C      -29.161     -77.221      54.134
  N      -29.821     -75.997      53.692
  C      -30.454     -75.253      54.681
  O      -30.496     -75.591      55.865
  N      -31.078     -74.109      54.260
  C      -31.167     -73.675      52.969
  O      -31.761     -72.648      52.655
  C      -30.512     -74.522      51.962
  C      -29.875     -75.629      52.362
  O      -28.043     -81.961      49.449
  O      -28.479     -79.454      48.937
  H      -29.283     -77.916      56.618
  H      -29.436     -79.704      48.933
  H      -31.531     -73.548      54.966
  H      -30.573     -74.215      50.926
  H      -29.382     -76.270      51.636
  H      -28.327     -76.936      54.792
  H      -31.061     -77.698      55.191
  H      -31.076     -78.836      53.112
  H      -28.262     -79.834      53.780
  H      -29.397     -81.025      51.897
  H      -29.658     -79.455      51.092
  P      -32.433     -80.865      54.164
  C      -34.550     -80.168      55.536
  O      -33.237     -79.838      55.096
  O      -32.783     -82.315      54.251
  O      -32.832     -80.354      52.682
  H      -33.519     -80.964      52.344
  H      -34.932     -79.375      56.144
  H      -34.518     -81.072      56.108
  H      -35.187     -80.306      54.687

 6  7  8  9  10  11  12  13  14  15  16  26  31  32  33  34  35 0
 6-311+G(2d,p)
 ****
 36  37 0
 6-311+G(2d,p)
 ****
 1  2  3  4  5  17  18  19  20  21  22  23  24  25 0
 3-21G
 ****
 27  28  29  30  38  39  40  41  42  43  44  45 0
 3-21G
 ****


