%nproc=1
%NoSave
%Mem=1900MB
#P OB98/GEN NMR

erre ene a

0 1
  C      258.339     107.570      17.054
  O      257.418     106.731      17.755
  P      256.624     105.654      16.866
  C      258.634     104.011      16.929
  O      257.246     104.205      17.171
  C      259.059     102.603      17.346
  O      260.426     102.313      16.984
  C      258.964     102.359      18.845
  O      257.621     102.091      19.208
  C      259.884     101.157      19.023
  O      259.194      99.923      18.742
  C      260.981     101.412      17.976
  N      265.155     100.456      20.692
  C      264.033      99.674      20.484
  N      264.035      98.455      21.065
  N      263.005     100.055      19.774
  C      263.140     101.298      19.251
  C      264.212     102.154      19.361
  C      265.344     101.722      20.157
  O      266.367     102.366      20.349
  N      264.011     103.306      18.644
  C      262.769     103.192      18.207
  N      262.219     101.966      18.494
  O      257.107     105.979      15.376
  O      255.139     105.754      16.997
  H      259.747      99.176      19.038
  H      256.373     106.371      14.866
  H      265.917     100.118      21.257
  H      262.235     103.953      17.658
  H      261.256     100.486      17.453
  H      260.252     101.076      20.049
  H      264.794      98.096      21.624
  H      259.361     103.221      19.394
  H      263.227      97.864      20.918
  H      258.412     101.891      16.813
  H      259.216     104.751      17.480
  H      258.831     104.182      15.865
  P      257.114     102.613      20.637
  C      256.429     105.064      20.121
  O      256.006     103.738      20.374
  O      258.374     103.435      21.192
  O      256.717     101.531      21.588
  H      258.519     103.215      22.130
  H      255.694     105.553      19.477
  H      257.406     105.091      19.628
  H      256.489     105.610      21.068
  H      258.805     108.242      17.744
  H      257.815     108.131      16.309
  H      259.087     106.965      16.585

 3  4  5  6  7  8  9  10  11  12  23  26  30  31 0
 6-311+G(2d,p)
 ****
 33  35  36  37  38 0
 6-311+G(2d,p)
 ****
 1  2  13  14  15  16  17  18  19  20  21  22  24  25 0
 3-21G
 ****
 27  28  29  32  34  39  40  41  42  43  44  45  46  47  48  49 0
 3-21G
 ****


