%nproc=1
%NoSave
%Mem=1900MB
#P OB98/GEN NMR

erre ene a

0 1
  C        0.589      22.856     -39.209
  O        0.948      21.825     -40.104
  H       -0.051      22.437     -38.429
  H        0.036      23.639     -39.734
  H        1.483      23.279     -38.744
  P        1.846      22.241     -41.367
  C       -0.214      22.170     -42.947
  O        0.859      22.938     -42.422
  C       -1.296      23.101     -43.481
  O       -1.717      24.013     -42.442
  C       -0.842      23.984     -44.635
  O       -0.812      23.285     -45.867
  C       -1.903      25.072     -44.600
  O       -3.088      24.675     -45.309
  C       -2.183      25.215     -43.088
  N       -1.569      26.413     -42.527
  C       -2.447      27.432     -42.171
  O       -3.667      27.350     -42.313
  N       -1.874      28.571     -41.679
  C       -0.535      28.800     -41.547
  O       -0.083      29.873     -41.167
  C        0.345      27.683     -41.925
  C       -0.202      26.561     -42.400
  O        2.194      20.832     -42.042
  O        3.070      23.028     -41.040
  H        3.109      20.576     -41.823
  H       -3.497      23.964     -44.778
  H       -2.493      29.325     -41.426
  H        1.414      27.829     -41.827
  H        0.428      25.731     -42.704
  H       -3.264      25.272     -42.905
  H       -1.550      25.991     -45.066
  H        0.132      24.433     -44.409
  H       -2.163      22.494     -43.776
  H       -0.640      21.546     -42.155
  H        0.168      21.519     -43.740
  P        0.236      23.753     -46.987
  C       -1.446      25.642     -47.695
  O       -0.126      25.274     -47.343
  O       -0.274      22.923     -48.254
  O        1.660      23.519     -46.611
  H       -1.241      22.827     -48.281
  H       -1.482      26.693     -47.895
  H       -2.108      25.409     -46.888
  H       -1.746      25.102     -48.569

 6  7  8  9  10  11  12  13  14  15  16  27  31  32  33  34  35 0
 6-311+G(2d,p)
 ****
 36  37 0
 6-311+G(2d,p)
 ****
 1  2  3  4  5  17  18  19  20  21  22  23  24  25 0
 3-21G
 ****
 26  28  29  30  38  39  40  41  42  43  44  45 0
 3-21G
 ****


