%nproc=1
%NoSave
%Mem=1900MB
#P OB98/GEN NMR

erre ene a

0 1
  C       49.961      65.006    -676.270
  O       50.700      65.529    -675.170
  P       50.442      67.080    -674.829
  C       51.648      69.334    -675.274
  O       51.618      67.934    -675.515
  C       53.076      69.875    -675.377
  O       53.890      69.402    -674.256
  C       53.812      69.457    -676.668
  O       54.662      70.548    -677.039
  C       54.641      68.276    -676.193
  O       55.684      67.925    -677.095
  C       55.078      68.788    -674.824
  N       59.319      66.781    -672.817
  C       59.120      67.806    -673.678
  N       57.958      68.271    -674.166
  C       56.922      67.572    -673.678
  C       56.957      66.497    -672.805
  C       58.233      66.096    -672.365
  N       58.451      65.036    -671.509
  N       55.685      66.027    -672.551
  C       54.890      66.763    -673.317
  N       55.590      67.756    -673.954
  O       50.753      67.182    -673.261
  O       49.062      67.542    -675.168
  H       56.154      68.734    -677.387
  H       49.919      67.160    -672.741
  H       60.017      68.308    -674.024
  H       53.838      66.610    -673.457
  H       55.846      69.569    -674.894
  H       53.989      67.400    -676.092
  H       53.137      69.225    -677.505
  H       53.037      70.976    -675.312
  H       51.247      69.558    -674.275
  H       59.395      64.824    -671.253
  H       57.675      64.508    -671.151
  H       50.985      69.833    -676.000
  P       54.347      71.343    -678.396
  C       55.752      71.802    -680.508
  O       55.583      70.969    -679.373
  O       54.734      72.834    -677.977
  O       52.963      71.201    -678.948
  H       55.604      72.870    -677.546
  H       56.656      71.497    -681.031
  H       55.854      72.853    -680.198
  H       54.899      71.677    -681.188
  H       50.208      63.974    -676.407
  H       50.207      65.552    -677.157
  H       48.914      65.099    -676.072

 3  4  5  6  7  8  9  10  11  12  22  25  29  30  31  32 0
 6-311+G(2d,p)
 ****
 33  36  37 0
 6-311+G(2d,p)
 ****
 1  2  13  14  15  16  17  18  19  20  21  23  24  26 0
 3-21G
 ****
 27  28  34  35  38  39  40  41  42  43  44  45  46  47  48 0
 3-21G
 ****


