%nproc=1
%NoSave
%Mem=1900MB
#P OB98/GEN NMR

erre ene a

0 1
  C      309.925     -47.977      -0.237
  O      308.794     -48.824      -0.167
  H      310.056     -47.653      -1.272
  H      310.819     -48.520       0.082
  H      309.778     -47.097       0.394
  P      308.421     -49.397       1.283
  C      307.533     -47.430       2.744
  O      307.231     -48.474       1.832
  C      306.249     -46.891       3.385
  O      306.612     -46.003       4.484
  C      305.370     -46.073       2.425
  O      304.005     -46.205       2.856
  C      305.854     -44.658       2.695
  O      304.963     -43.708       2.159
  C      305.995     -44.725       4.213
  N      305.849     -40.246       6.672
  C      304.873     -41.107       6.316
  N      304.989     -42.287       5.674
  C      306.279     -42.562       5.415
  C      307.383     -41.786       5.725
  C      307.131     -40.570       6.383
  N      308.123     -39.686       6.739
  N      308.546     -42.399       5.296
  C      308.148     -43.525       4.738
  N      306.789     -43.661       4.780
  O      309.677     -48.975       2.180
  O      308.158     -50.864       1.345
  H      305.296     -42.797       2.303
  H      310.312     -49.713       2.231
  H      303.862     -40.808       6.579
  H      308.795     -44.265       4.284
  H      305.019     -44.715       4.713
  H      306.824     -44.481       2.221
  H      305.457     -46.388       1.382
  H      305.692     -47.726       3.825
  H      308.041     -46.628       2.198
  H      308.198     -47.809       3.526
  H      307.857     -38.827       7.194
  H      309.081     -39.906       6.514
  P      303.148     -47.472       2.360
  C      303.263     -49.114       4.393
  O      302.497     -48.185       3.641
  O      304.299     -48.514       1.952
  O      302.229     -47.224       1.210
  H      303.966     -49.112       1.257
  H      302.674     -49.487       5.205
  H      304.135     -48.628       4.779
  H      303.557     -49.927       3.762

 6  7  8  9  10  11  12  13  14  15  25  28  32  33  34  35 0
 6-311+G(2d,p)
 ****
 36  37  40 0
 6-311+G(2d,p)
 ****
 1  2  3  4  5  16  17  18  19  20  21  22  23  24 0
 3-21G
 ****
 26  27  29  30  31  38  39 41  42  43  44  45  46  47  48 0
 3-21G
 ****


