%nproc=1
%NoSave
%Mem=1900MB
#P OB98/GEN NMR

erre ene a

0 1
  C     -160.069     269.422     -71.863
  O     -159.682     268.612     -72.956
  H     -159.881     270.468     -72.119
  H     -159.482     269.162     -70.978
  H     -161.135     269.294     -71.655
  P     -159.896     267.032     -72.782
  C     -158.317     266.924     -70.711
  O     -158.586     266.488     -72.035
  C     -157.175     266.103     -70.100
  O     -157.636     264.733     -69.905
  C     -155.921     266.027     -70.985
  O     -154.781     265.870     -70.123
  C     -156.163     264.738     -71.752
  O     -154.985     264.301     -72.390
  C     -156.723     263.876     -70.624
  N     -157.055     258.796     -70.145
  C     -156.315     259.715     -69.487
  N     -156.289     261.051     -69.661
  C     -157.157     261.423     -70.619
  C     -157.984     260.603     -71.369
  C     -157.910     259.225     -71.104
  N     -158.656     258.286     -71.777
  N     -158.733     261.350     -72.260
  C     -158.363     262.597     -72.050
  N     -157.408     262.688     -71.074
  O     -159.744     266.474     -74.274
  O     -161.189     266.624     -72.161
  H     -155.139     263.455     -72.865
  H     -160.624     266.382     -74.685
  H     -155.653     259.322     -68.720
  H     -158.742     263.464     -72.577
  H     -155.940     263.562     -69.924
  H     -156.910     264.887     -72.538
  H     -155.781     266.909     -71.616
  H     -156.940     266.501     -69.105
  H     -159.226     266.798     -70.112
  H     -158.039     267.982     -70.725
  H     -158.531     257.316     -71.538
  H     -159.283     258.589     -72.507
  P     -153.785     267.112     -69.906
  C     -152.379     266.794     -72.090
  O     -152.409     266.805     -70.670
  O     -153.360     266.933     -68.371
  O     -154.376     268.464     -70.137
  H     -153.135     267.803     -67.990
  H     -151.387     266.573     -72.424
  H     -152.675     267.753     -72.460
  H     -153.053     266.047     -72.455

 6  7  8  9  10  11  12  13  14  15  25  28  32  33  34  35 0
 6-311+G(2d,p)
 ****
 36  37  40 0
 6-311+G(2d,p)
 ****
 1  2  3  4  5  16  17  18  19  20  21  22  23  24 0
 3-21G
 ****
 26  27  29  30  31  38  39 41  42  43  44  45  46  47  48 0
 3-21G
 ****


