%nproc=1
%NoSave
%Mem=1900MB
#P OB98/GEN NMR

erre ene a

0 1
  C      -11.303      18.673      -2.317
  O      -12.199      19.513      -1.618
  H      -11.406      17.655      -1.937
  H      -10.276      19.008      -2.154
  H      -11.529      18.674      -3.388
  P      -12.390      21.006      -2.169
  C      -14.910      21.116      -2.797
  O      -13.906      21.423      -1.840
  C      -16.113      22.039      -2.603
  O      -17.087      21.757      -3.649
  C      -16.825      21.864      -1.255
  O      -17.290      23.145      -0.818
  C      -18.020      20.997      -1.609
  O      -19.102      21.105      -0.693
  C      -18.357      21.526      -3.007
  N      -19.175      20.592      -3.778
  C      -20.521      20.494      -3.444
  O      -21.090      21.194      -2.607
  N      -21.230      19.533      -4.123
  C      -20.731      18.674      -5.056
  O      -21.414      17.823      -5.614
  C      -19.301      18.821      -5.360
  C      -18.599      19.756      -4.716
  O      -12.396      20.805      -3.757
  O      -11.364      21.993      -1.720
  H      -11.490      20.868      -4.112
  H      -18.778      20.803       0.178
  H      -22.207      19.450      -3.891
  H      -18.869      18.147      -6.088
  H      -17.537      19.876      -4.900
  H      -18.868      22.491      -2.935
  H      -17.717      19.944      -1.652
  H      -16.205      21.409      -0.476
  H      -15.787      23.076      -2.742
  H      -15.234      20.080      -2.664
  H      -14.497      21.233      -3.803
  P      -16.573      23.791       0.464
  C      -14.488      24.693      -0.845
  O      -15.663      24.984      -0.106
  O      -15.526      22.643       0.845
  O      -17.529      24.161       1.545
  H      -15.167      22.182       0.065
  H      -14.017      25.607      -1.140
  H      -14.745      24.127      -1.716
  H      -13.816      24.125      -0.237

 6  7  8  9  10  11  12  13  14  15  16  27  31  32  33  34  35 0
 6-311+G(2d,p)
 ****
 36  37 0
 6-311+G(2d,p)
 ****
 1  2  3  4  5  17  18  19  20  21  22  23  24  25 0
 3-21G
 ****
 26  28  29  30  38  39  40  41  42  43  44  45 0
 3-21G
 ****


