%nproc=1
%NoSave
%Mem=1900MB
#P OB98/GEN NMR

erre ene a

0 1
  C      -25.089     137.451     -95.539
  O      -26.153     136.525     -95.454
  H      -25.488     138.412     -95.874
  H      -24.341     137.109     -96.260
  H      -24.629     137.582     -94.557
  P      -25.767     135.027     -95.031
  C      -26.338     134.000     -97.325
  O      -25.306     134.329     -96.403
  C      -26.326     132.500     -97.625
  O      -25.088     132.177     -98.312
  C      -26.399     131.624     -96.369
  O      -27.168     130.456     -96.659
  C      -24.951     131.225     -96.142
  O      -24.832     130.030     -95.376
  C      -24.444     131.121     -97.579
  N      -20.061     128.585     -97.051
  C      -21.346     128.171     -97.098
  N      -22.457     128.918     -97.267
  C      -22.136     130.212     -97.452
  C      -20.876     130.782     -97.431
  C      -19.800     129.904     -97.207
  N      -18.491     130.318     -97.122
  N      -20.962     132.147     -97.613
  C      -22.252     132.396     -97.753
  N      -23.000     131.257     -97.642
  O      -26.808     134.286     -94.260
  O      -24.376     135.245     -94.271
  H      -25.400     129.343     -95.783
  H      -23.783     135.835     -94.773
  H      -21.504     127.103     -96.975
  H      -22.690     133.375     -97.918
  H      -24.701     130.163     -98.049
  H      -24.425     132.022     -95.603
  H      -26.821     132.142     -95.508
  H      -27.143     132.273     -98.317
  H      -26.202     134.560     -98.257
  H      -17.781     129.622     -96.962
  H      -18.272     131.297     -97.242
  H      -27.294     134.293     -96.880
  P      -28.755     130.494     -96.439
  C      -28.515     130.246     -93.886
  O      -29.056     131.015     -94.949
  O      -29.493     129.260     -96.834
  O      -29.206     131.745     -97.336
  H      -30.031     131.516     -97.809
  H      -28.783     130.692     -92.951
  H      -27.449     130.215     -93.974
  H      -28.905     129.251     -93.931

 6  7  8  9  10  11  12  13  14  15  25  28  32  33  34  35 0
 6-311+G(2d,p)
 ****
 36  39  40 0
 6-311+G(2d,p)
 ****
 1  2  3  4  5  16  17  18  19  20  21  22  23  24 0
 3-21G
 ****
 26  27  29  30  31  37  38  41  42  43  44  45  46  47 0
 3-21G
 ****
 48 0
 3-21G
 ****


