%nproc=1
%NoSave
%Mem=1900MB
#P OB98/GEN NMR

erre ene a

0 1
  C      520.230     233.520     201.175
  O      521.375     234.334     201.366
  H      519.721     233.405     202.133
  H      520.528     232.531     200.811
  H      519.548     233.990     200.462
  P      522.324     234.536     200.084
  C      524.341     233.588     201.438
  O      523.786     234.685     200.724
  C      525.694     233.983     202.021
  O      526.592     234.399     200.967
  C      525.637     235.160     202.996
  O      525.181     234.786     204.288
  C      527.098     235.573     203.003
  O      527.861     234.656     203.806
  C      527.454     235.446     201.507
  N      527.276     236.690     200.766
  C      528.334     237.604     200.792
  O      529.355     237.359     201.444
  N      528.206     238.800     200.124
  C      527.120     239.057     199.465
  N      527.032     240.258     198.831
  C      525.980     238.119     199.377
  C      526.129     236.968     200.049
  O      522.001     236.035     199.607
  O      522.201     233.506     199.012
  H      527.486     234.692     204.706
  H      522.631     236.300     198.894
  H      525.094     238.373     198.837
  H      525.334     236.228     200.037
  H      528.493     235.111     201.383
  H      527.249     236.575     203.425
  H      525.038     235.986     202.596
  H      526.134     233.092     202.497
  H      527.800     240.909     198.947
  H      524.461     232.750     200.746
  H      526.169     240.613     198.446
  H      523.677     233.290     202.251
  P      524.108     235.731     205.004
  C      525.741     236.592     206.830
  O      524.559     235.867     206.541
  O      522.802     234.814     205.084
  O      523.843     237.034     204.300
  H      521.997     235.336     204.915
  H      525.908     236.595     207.887
  H      525.636     237.599     206.483
  H      526.572     236.130     206.338

 6  7  8  9  10  11  12  13  14  15  16  26  30  31  32  33  35 0
 6-311+G(2d,p)
 ****
 37  38 0
 6-311+G(2d,p)
 ****
 1  2  3  4  5  17  18  19  20  21  22  23  24  25 0
 3-21G
 ****
 27  28  29  34  36  39  40  41  42  43  44  45  46 0
 3-21G
 ****


