%nproc=1
%NoSave
%Mem=1900MB
#P OB98/GEN NMR

erre ene a

0 1
  C      -35.942    -388.685     -16.561
  O      -36.038    -388.545     -15.161
  H      -36.725    -389.369     -16.900
  H      -34.969    -389.108     -16.819
  H      -36.071    -387.726     -17.071
  P      -35.341    -387.286     -14.464
  C      -36.362    -387.793     -12.144
  O      -35.169    -387.614     -12.898
  C      -36.078    -388.414     -10.777
  O      -35.599    -389.767     -10.953
  C      -34.998    -387.661      -9.999
  O      -35.484    -386.574      -9.220
  C      -34.425    -388.760      -9.109
  O      -35.152    -388.866      -7.871
  C      -34.608    -390.033      -9.948
  N      -30.748    -393.388      -9.939
  C      -31.732    -393.194      -8.984
  N      -31.643    -393.966      -7.882
  N      -32.688    -392.311      -9.106
  C      -32.585    -391.544     -10.214
  C      -31.644    -391.630     -11.219
  C      -30.631    -392.662     -11.115
  O      -29.752    -392.886     -11.941
  N      -31.834    -390.654     -12.173
  C      -32.830    -389.934     -11.697
  N      -33.368    -390.479     -10.553
  O      -36.500    -386.175     -14.455
  O      -34.116    -386.764     -15.149
  H      -34.828    -388.168      -7.267
  H      -36.102    -385.288     -14.527
  H      -30.056    -394.101      -9.805
  H      -33.224    -389.038     -12.158
  H      -34.983    -390.862      -9.335
  H      -33.385    -388.544      -8.841
  H      -30.883    -394.601      -7.698
  H      -34.205    -387.319     -10.671
  H      -32.233    -393.727      -7.077
  H      -37.014    -388.481     -10.208
  H      -37.003    -388.450     -12.732
  H      -36.885    -386.842     -12.028
  P      -35.291    -385.066      -9.709
  C      -35.440    -383.957      -7.335
  O      -34.686    -384.219      -8.498
  O      -36.789    -384.526      -9.828
  O      -34.533    -384.895     -10.988
  H      -37.096    -384.558     -10.751
  H      -34.853    -383.378      -6.653
  H      -35.716    -384.882      -6.873
  H      -36.323    -383.412      -7.597

 6  7  8  9  10  11  12  13  14  15  26  29  33  34 0
 6-311+G(2d,p)
 ****
 36  38  39  40  41 0
 6-311+G(2d,p)
 ****
 1  2  3  4  5  16  17  18  19  20  21  22  23  24  25 0
 3-21G
 ****
 27  28  30  31  32  35  37  42  43  44  45  46  47 0
 3-21G
 ****
 48  49 0
 3-21G
 ****


