%nproc=1
%NoSave
%Mem=1900MB
#P OB98/GEN NMR

erre ene a

0 1
  C     -350.251     166.905    -938.436
  O     -350.156     165.563    -938.924
  P     -349.165     165.285    -940.162
  C     -350.040     163.555    -941.912
  O     -349.392     163.774    -940.668
  C     -350.867     162.271    -941.868
  O     -350.084     161.139    -941.377
  C     -352.078     162.338    -940.944
  O     -353.172     162.978    -941.588
  C     -352.364     160.871    -940.729
  O     -353.087     160.341    -941.858
  C     -350.963     160.256    -940.656
  N     -347.068     158.545    -937.804
  C     -347.287     158.545    -939.144
  N     -348.355     158.994    -939.820
  C     -349.256     159.531    -938.986
  C     -349.170     159.605    -937.601
  C     -348.017     159.089    -937.013
  N     -347.800     159.123    -935.642
  N     -350.304     160.196    -937.085
  C     -351.050     160.497    -938.132
  N     -350.465     160.093    -939.305
  O     -347.719     165.233    -939.460
  O     -349.211     166.323    -941.231
  H     -354.010     160.654    -941.789
  H     -347.055     165.597    -940.067
  H     -346.486     158.099    -939.756
  H     -352.010     160.992    -938.100
  H     -350.924     159.282    -941.149
  H     -352.984     160.684    -939.851
  H     -351.817     162.826    -939.998
  H     -351.180     162.037    -942.904
  H     -349.293     163.506    -942.717
  H     -346.919     158.738    -935.302
  H     -348.498     159.533    -935.047
  H     -350.672     164.420    -942.136
  P     -353.091     164.573    -941.760
  C     -355.489     165.430    -941.225
  O     -354.553     165.035    -942.210
  O     -352.190     164.752    -943.087
  O     -352.503     165.302    -940.590
  H     -351.687     165.588    -943.030
  H     -356.292     165.990    -941.710
  H     -355.018     166.068    -940.466
  H     -355.905     164.546    -940.742
  H     -350.941     166.939    -937.619
  H     -350.595     167.546    -939.220
  H     -349.288     167.233    -938.104

 3  4  5  6  7  8  9  10  11  12  22  25  29  30  31  32 0
 6-311+G(2d,p)
 ****
 33  36  37 0
 6-311+G(2d,p)
 ****
 1  2  13  14  15  16  17  18  19  20  21  23  24  26 0
 3-21G
 ****
 27  28  34  35  38  39  40  41  42  43  44  45  46  47  48 0
 3-21G
 ****


