%nproc=1
%NoSave
%Mem=1900MB
#P OB98/GEN NMR

erre ene a

0 1
  C      213.562     374.545      53.529
  O      212.278     373.916      53.602
  P      212.248     372.373      54.050
  C      210.108     371.763      52.726
  O      210.725     371.864      54.000
  C      208.743     372.463      52.709
  O      207.761     371.706      53.476
  C      208.768     373.877      53.295
  O      207.810     374.665      52.577
  C      208.266     373.671      54.710
  O      207.792     374.887      55.283
  C      207.211     372.593      54.470
  N      204.800     372.889      58.960
  C      204.954     373.780      57.958
  N      205.635     373.631      56.800
  C      206.150     372.391      56.714
  C      206.082     371.381      57.658
  C      205.367     371.666      58.833
  N      205.233     370.770      59.866
  N      206.779     370.266      57.227
  C      207.260     370.607      56.048
  N      206.881     371.868      55.681
  O      212.572     372.443      55.616
  O      213.232     371.515      53.328
  H      207.222     374.662      56.048
  H      213.472     372.113      55.784
  H      204.476     374.744      58.106
  H      207.886     369.984      55.427
  H      206.272     373.006      54.078
  H      209.078     373.288      55.341
  H      209.747     374.366      53.267
  H      208.387     372.500      51.673
  H      209.974     370.713      52.456
  H      204.729     371.064      60.690
  H      205.690     369.873      59.805
  H      210.779     372.184      51.971
  P      208.270     376.141      52.150
  C      206.181     377.410      53.015
  O      206.926     376.970      51.898
  O      208.876     375.936      50.682
  O      209.256     376.764      53.083
  H      209.527     376.634      50.487
  H      205.816     378.421      52.820
  H      206.778     377.420      53.931
  H      205.322     376.747      53.156
  H      213.444     375.563      53.222
  H      214.173     374.027      52.820
  H      214.029     374.515      54.491

 3  4  5  6  7  8  9  10  11  12  22  25  29  30  31  32 0
 6-311+G(2d,p)
 ****
 33  36  37 0
 6-311+G(2d,p)
 ****
 1  2  13  14  15  16  17  18  19  20  21  23  24  26 0
 3-21G
 ****
 27  28  34  35  38  39  40  41  42  43  44  45  46  47  48 0
 3-21G
 ****


