%nproc=1
%NoSave
%Mem=1900MB
#P OB98/GEN NMR

erre ene a

0 1
  C     -162.120     -29.808     291.429
  O     -162.892     -28.758     290.879
  H     -162.500     -30.758     291.048
  H     -162.201     -29.806     292.520
  H     -161.074     -29.700     291.129
  P     -162.515     -27.269     291.343
  C     -160.658     -27.249     289.540
  O     -160.979     -27.095     290.916
  C     -159.847     -26.055     289.043
  O     -160.692     -24.898     288.914
  C     -158.702     -25.648     289.961
  O     -157.559     -26.451     289.716
  C     -158.475     -24.210     289.521
  O     -157.678     -24.193     288.320
  C     -159.899     -23.720     289.210
  N     -160.266     -19.187     291.591
  C     -159.390     -19.649     290.673
  N     -159.317     -20.880     290.124
  C     -160.287     -21.675     290.608
  C     -161.249     -21.344     291.550
  C     -161.221     -20.031     292.047
  N     -162.115     -19.564     292.985
  N     -162.075     -22.418     291.807
  C     -161.655     -23.361     290.990
  N     -160.553     -22.975     290.269
  O     -162.848     -26.929     292.757
  O     -163.281     -26.401     290.237
  H     -156.954     -24.833     288.453
  H     -163.193     -26.813     289.359
  H     -158.646     -18.935     290.335
  H     -162.123     -24.331     290.865
  H     -159.922     -23.079     288.320
  H     -157.939     -23.622     290.266
  H     -159.001     -25.658     291.015
  H     -159.473     -26.298     288.039
  H     -161.575     -27.346     288.947
  H     -161.905     -18.682     293.423
  H     -162.740     -20.230     293.414
  H     -160.080     -28.172     289.436
  P     -156.434     -26.656     290.841
  C     -157.618     -28.793     291.642
  O     -157.156     -27.496     292.000
  O     -155.756     -25.404     291.272
  O     -155.426     -27.719     290.202
  H     -154.580     -27.711     290.688
  H     -158.079     -29.254     292.490
  H     -156.791     -29.389     291.317
  H     -158.332     -28.711     290.849

 6  7  8  9  10  11  12  13  14  15  25  28  32  33  34  35 0
 6-311+G(2d,p)
 ****
 36  39  40 0
 6-311+G(2d,p)
 ****
 1  2  3  4  5  16  17  18  19  20  21  22  23  24 0
 3-21G
 ****
 26  27  29  30  31  37  38  41  42  43  44  45  46  47 0
 3-21G
 ****
 48 0
 3-21G
 ****


