%nproc=1
%NoSave
%Mem=1900MB
#P OB98/GEN NMR

erre ene a

0 1
  C      217.356      42.751     341.165
  O      216.291      42.734     340.209
  P      216.668      43.041     338.676
  C      217.289      45.215     337.351
  O      216.944      44.626     338.597
  C      217.300      46.745     337.457
  O      215.930      47.253     337.425
  C      217.972      47.291     338.730
  O      218.664      48.492     338.350
  C      216.790      47.626     339.627
  O      217.132      48.579     340.625
  C      215.774      48.110     338.581
  N      214.398      48.093     339.080
  C      213.977      49.213     339.795
  O      214.723      50.149     340.079
  N      212.669      49.192     340.210
  C      211.791      48.156     340.056
  O      210.633      48.194     340.450
  C      212.334      46.957     339.395
  C      213.589      46.986     338.946
  O      215.258      42.847     337.954
  O      217.770      42.169     338.161
  H      214.502      43.159     338.486
  H      216.374      48.678     341.238
  H      212.331      50.012     340.706
  H      211.684      46.095     339.303
  H      214.028      46.111     338.477
  H      216.013      49.135     338.264
  H      216.430      46.713     340.121
  H      218.678      46.579     339.177
  H      217.810      47.145     336.567
  H      216.561      44.918     336.589
  H      218.265      44.830     337.030
  P      220.130      48.747     338.967
  C      220.997      49.418     341.349
  O      219.932      49.390     340.423
  O      220.592      50.009     338.078
  O      221.078      47.593     338.859
  H      219.909      50.697     338.014
  H      220.732      50.096     342.169
  H      221.913      49.784     340.884
  H      221.162      48.420     341.756
  H      216.966      42.532     342.137
  H      217.812      43.719     341.173
  H      218.086      42.015     340.899

 3  4  5  6  7  8  9  10  11  12  13  24  28  29  30  31  32 0
 6-311+G(2d,p)
 ****
 33  34 0
 6-311+G(2d,p)
 ****
 1  2  14  15  16  17  18  19  20  21  22  23  25  26  27 0
 3-21G
 ****
 35  36  37  38  39  40  41  42  43  44  45 0
 3-21G
 ****


