%nproc=1
%NoSave
%Mem=1900MB
#P OB98/GEN NMR

erre ene a

0 1
  C       57.013    -408.897      29.758
  O       55.818    -409.645      29.727
  H       56.792    -407.873      29.443
  H       57.734    -409.330      29.060
  H       57.443    -408.871      30.762
  P       55.749    -411.020      30.542
  C       54.466    -409.980      32.524
  O       55.642    -410.660      32.105
  C       54.131    -410.272      33.988
  O       53.159    -409.323      34.476
  C       53.508    -411.655      34.177
  O       54.427    -412.724      34.286
  C       52.728    -411.469      35.474
  O       53.573    -411.691      36.617
  C       52.294    -410.003      35.403
  N       48.466    -406.819      34.256
  C       49.742    -406.522      34.696
  N       50.011    -405.216      34.911
  N       50.656    -407.430      34.918
  C       50.215    -408.698      34.752
  C       48.971    -409.117      34.334
  C       47.981    -408.100      34.037
  O       46.834    -408.310      33.652
  N       48.895    -410.488      34.281
  C       50.059    -410.895      34.735
  N       50.907    -409.846      35.008
  O       57.240    -411.603      30.424
  O       54.744    -412.012      30.042
  H       54.431    -411.262      36.452
  H       57.225    -412.572      30.505
  H       47.813    -406.079      34.075
  H       50.353    -411.935      34.857
  H       52.409    -409.504      36.375
  H       51.899    -412.179      35.554
  H       49.306    -404.495      34.867
  H       52.793    -411.861      33.373
  H       50.830    -404.983      35.477
  H       55.036    -410.150      34.596
  H       53.656    -410.327      31.880
  H       54.573    -408.905      32.363
  P       53.962    -414.219      33.943
  C       54.668    -413.995      31.448
  O       53.637    -414.260      32.372
  O       52.523    -414.311      34.635
  O       54.880    -415.290      34.426
  H       52.597    -414.727      35.511
  H       54.281    -414.064      30.453
  H       55.454    -414.710      31.576
  H       55.052    -413.010      31.614

 6  7  8  9  10  11  12  13  14  15  26  29  33  34 0
 6-311+G(2d,p)
 ****
 36  38  39  40  41 0
 6-311+G(2d,p)
 ****
 1  2  3  4  5  16  17  18  19  20  21  22  23  24  25 0
 3-21G
 ****
 27  28  30  31  32  35  37  42  43  44  45  46  47 0
 3-21G
 ****
 48  49 0
 3-21G
 ****


