%nproc=1
%NoSave
%Mem=1900MB
#P OB98/GEN NMR

erre ene a

0 1
  C      -97.360      89.167    -130.991
  O      -98.602      88.488    -130.925
  H      -97.361      89.804    -131.881
  H      -96.538      88.450    -131.070
  H      -97.231      89.797    -130.108
  P      -98.795      87.466    -129.703
  C     -100.963      88.787    -129.198
  O      -99.755      88.245    -128.679
  C     -101.816      89.366    -128.068
  O     -101.142      90.482    -127.460
  C     -103.180      89.881    -128.514
  O     -104.115      88.812    -128.588
  C     -103.515      90.835    -127.373
  O     -104.030      90.088    -126.249
  C     -102.145      91.437    -127.017
  N      -99.716      95.921    -126.416
  C      -99.951      94.905    -125.559
  N     -100.654      93.774    -125.768
  C     -101.129      93.727    -127.022
  C     -100.967      94.691    -128.011
  C     -100.220      95.828    -127.672
  N      -99.984      96.870    -128.549
  N     -101.602      94.307    -129.176
  C     -102.079      93.106    -128.915
  N     -101.852      92.728    -127.614
  O      -97.536      86.901    -129.126
  O      -99.787      86.392    -130.357
  H     -104.918      89.769    -126.509
  H     -100.463      86.837    -130.901
  H      -99.520      95.023    -124.560
  H     -102.576      92.464    -129.631
  H     -102.025      91.559    -125.931
  H     -104.279      91.560    -127.646
  H     -103.122      90.444    -129.452
  H     -101.923      88.592    -127.294
  H     -101.531      88.007    -129.727
  H      -99.608      97.721    -128.165
  H     -100.468      96.853    -129.434
  H     -100.696      89.567    -129.915
  P     -104.993      88.570    -129.907
  C     -104.592      86.030    -130.050
  O     -104.324      87.308    -130.633
  O     -105.183      89.784    -130.757
  O     -106.373      87.974    -129.357
  H     -107.067      88.042    -130.044
  H     -104.097      85.269    -130.616
  H     -105.647      85.849    -130.056
  H     -104.233      86.015    -129.042

 6  7  8  9  10  11  12  13  14  15  25  28  32  33  34  35 0
 6-311+G(2d,p)
 ****
 36  39  40 0
 6-311+G(2d,p)
 ****
 1  2  3  4  5  16  17  18  19  20  21  22  23  24 0
 3-21G
 ****
 26  27  29  30  31  37  38  41  42  43  44  45  46  47 0
 3-21G
 ****
 48 0
 3-21G
 ****


