%nproc=1
%NoSave
%Mem=1900MB
#P OB98/GEN NMR

erre ene a

0 1
  C      673.844     528.382     923.023
  O      675.090     527.865     922.599
  H      673.916     529.480     923.098
  H      673.581     527.994     924.008
  H      673.067     528.137     922.294
  P      675.242     526.286     922.412
  C      675.118     525.784     924.972
  O      675.928     525.790     923.793
  C      675.738     524.873     926.016
  O      675.750     523.490     925.592
  C      677.194     525.190     926.365
  O      677.341     526.370     927.151
  C      677.554     523.935     927.137
  O      676.981     523.981     928.444
  C      676.881     522.843     926.267
  N      677.792     522.232     925.284
  C      678.904     521.572     925.792
  O      679.086     521.492     927.008
  N      679.807     521.023     924.905
  C      679.610     521.141     923.611
  N      680.522     520.578     922.799
  C      678.448     521.850     923.047
  C      677.592     522.383     923.931
  O      675.926     525.834     921.161
  O      673.758     525.716     922.576
  H      676.013     524.076     928.334
  H      673.790     524.734     922.460
  H      678.352     521.960     921.971
  H      676.716     522.925     923.567
  H      676.460     522.035     926.887
  H      678.633     523.784     927.259
  H      677.797     525.229     925.446
  H      675.097     524.914     926.923
  H      681.311     520.083     923.214
  H      674.115     525.437     924.680
  H      680.510     520.674     921.779
  H      675.038     526.790     925.366
  P      678.384     527.477     926.590
  C      680.602     526.379     927.450
  O      679.654     527.431     927.566
  O      677.656     528.862     926.949
  O      678.705     527.351     925.119
  H      677.187     529.217     926.149
  H      681.374     526.513     928.178
  H      681.030     526.391     926.469
  H      680.115     525.440     927.615

 6  7  8  9  10  11  12  13  14  15  16  26  30  31  32  33  35 0
 6-311+G(2d,p)
 ****
 37  38 0
 6-311+G(2d,p)
 ****
 1  2  3  4  5  17  18  19  20  21  22  23  24  25 0
 3-21G
 ****
 27  28  29  34  36  39  40  41  42  43  44  45  46 0
 3-21G
 ****


