%nproc=1
%NoSave
%Mem=1900MB
#P OB98/GEN NMR

erre ene a

0 1
  C     -210.306     -71.492      14.621
  O     -209.088     -70.839      14.335
  H     -210.176     -72.093      15.524
  H     -210.571     -72.156      13.792
  H     -211.114     -70.776      14.789
  P     -209.104     -69.577      13.352
  C     -207.402     -70.728      11.791
  O     -207.715     -69.564      12.547
  C     -205.891     -70.937      11.666
  O     -205.293     -69.836      10.948
  C     -205.196     -70.982      13.027
  O     -205.207     -72.241      13.674
  C     -203.772     -70.565      12.663
  O     -203.004     -71.700      12.228
  C     -203.990     -69.589      11.505
  N     -201.442     -65.178      11.107
  C     -201.147     -66.405      10.545
  N     -199.999     -66.478       9.838
  N     -201.905     -67.461      10.686
  C     -202.969     -67.261      11.499
  C     -203.355     -66.098      12.123
  C     -202.539     -64.917      11.916
  O     -202.752     -63.808      12.396
  N     -204.498     -66.279      12.865
  C     -204.756     -67.566      12.753
  N     -203.873     -68.201      11.912
  O     -208.940     -68.327      14.344
  O     -210.335     -69.436      12.509
  H     -203.071     -72.394      12.910
  H     -209.337     -67.531      13.946
  H     -200.838     -64.391      10.943
  H     -205.581     -68.080      13.235
  H     -203.262     -69.751      10.701
  H     -203.246     -70.137      13.518
  H     -199.329     -65.726       9.800
  H     -205.615     -70.220      13.694
  H     -199.619     -67.407       9.639
  H     -205.699     -71.847      11.084
  H     -207.841     -70.589      10.802
  H     -207.874     -71.607      12.236
  P     -205.378     -72.322      15.265
  C     -203.527     -73.958      16.082
  O     -204.878     -73.776      15.715
  O     -206.967     -72.393      15.444
  O     -204.783     -71.185      16.021
  H     -207.324     -71.504      15.633
  H     -203.366     -74.981      16.353
  H     -203.296     -73.328      16.915
  H     -202.896     -73.704      15.256

 6  7  8  9  10  11  12  13  14  15  26  29  33  34 0
 6-311+G(2d,p)
 ****
 36  38  39  40  41 0
 6-311+G(2d,p)
 ****
 1  2  3  4  5  16  17  18  19  20  21  22  23  24  25 0
 3-21G
 ****
 27  28  30  31  32  35  37  42  43  44  45  46  47 0
 3-21G
 ****
 48  49 0
 3-21G
 ****


