%nproc=1
%NoSave
%Mem=1900MB
#P OB98/GEN NMR

erre ene a

0 1
  C      608.036    -576.333     -83.617
  O      606.975    -577.264     -83.576
  P      605.505    -576.845     -84.076
  C      603.529    -575.568     -83.044
  O      604.746    -576.257     -82.792
  C      603.175    -574.655     -81.870
  O      604.010    -573.451     -81.874
  C      601.755    -574.124     -81.893
  O      600.707    -575.057     -81.724
  C      601.836    -572.992     -80.880
  O      601.741    -573.487     -79.542
  C      603.262    -572.442     -81.156
  N      603.229    -571.172     -81.893
  C      602.660    -570.098     -81.220
  O      602.204    -570.173     -80.075
  N      602.602    -568.926     -81.913
  C      603.006    -568.734     -83.212
  O      602.877    -567.662     -83.796
  C      603.581    -569.914     -83.874
  C      603.663    -571.057     -83.198
  O      604.762    -577.908     -84.805
  O      605.779    -575.524     -84.949
  H      602.426    -574.173     -79.433
  H      606.193    -574.791     -84.458
  H      602.182    -568.129     -81.460
  H      603.917    -569.792     -84.900
  H      604.088    -571.946     -83.665
  H      603.793    -572.270     -80.207
  H      601.030    -572.259     -81.014
  H      601.576    -573.661     -82.879
  H      603.394    -575.193     -80.941
  H      602.727    -576.302     -83.170
  H      603.609    -574.999     -83.982
  P      599.183    -574.751     -82.114
  C      597.333    -573.099     -81.376
  O      598.641    -573.589     -81.162
  O      598.306    -575.940     -82.326
  O      599.349    -573.984     -83.509
  H      598.575    -574.166     -84.081
  H      597.148    -572.276     -80.666
  H      596.594    -573.880     -81.199
  H      597.230    -572.708     -82.399
  H      608.928    -576.793     -83.247
  H      607.792    -575.487     -83.009
  H      608.192    -576.014     -84.626

 3  4  5  6  7  8  9  10  11  12  13  23  28  29  30  31  32 0
 6-311+G(2d,p)
 ****
 33  34 0
 6-311+G(2d,p)
 ****
 1  2  14  15  16  17  18  19  20  21  22  24  25  26  27 0
 3-21G
 ****
 35  36  37  38  39  40  41  42  43  44  45 0
 3-21G
 ****


