%nproc=1
%NoSave
%Mem=1900MB
#P OB98/GEN NMR

erre ene a

0 1
  C      -30.427    -566.265     359.054
  O      -29.777    -565.184     359.694
  H      -30.830    -565.915     358.101
  H      -31.248    -566.633     359.674
  H      -29.711    -567.070     358.859
  P      -29.138    -565.480     361.134
  C      -29.104    -562.907     361.436
  O      -29.465    -564.164     361.994
  C      -29.723    -561.768     362.244
  O      -31.144    -561.727     362.039
  C      -29.509    -561.878     363.747
  O      -28.241    -561.367     364.111
  C      -30.631    -560.992     364.260
  O      -30.231    -559.609     364.184
  C      -31.768    -561.261     363.260
  N      -36.628    -562.003     364.748
  C      -35.908    -560.872     364.566
  N      -34.606    -560.750     364.223
  C      -34.044    -561.963     364.057
  C      -34.649    -563.196     364.209
  C      -36.007    -563.193     364.568
  N      -36.737    -564.343     364.757
  N      -33.757    -564.218     363.964
  C      -32.644    -563.605     363.602
  N      -32.759    -562.237     363.680
  O      -27.716    -565.931     361.133
  O      -30.185    -566.542     361.721
  H      -30.877    -559.100     364.714
  H      -31.093    -566.287     361.489
  H      -36.445    -559.941     364.716
  H      -31.746    -564.102     363.263
  H      -32.320    -560.344     363.015
  H      -30.884    -561.190     365.303
  H      -29.666    -562.903     364.109
  H      -29.305    -560.823     361.857
  H      -29.438    -562.853     360.394
  H      -37.641    -564.255     365.200
  H      -36.242    -565.225     364.747
  H      -28.012    -562.840     361.452
  P      -27.614    -561.652     365.558
  C      -25.671    -560.142     364.823
  O      -26.622    -560.420     365.836
  O      -27.020    -563.013     365.721
  O      -28.816    -561.382     366.570
  H      -28.626    -561.777     367.441
  H      -25.070    -559.307     365.117
  H      -26.179    -559.912     363.910
  H      -25.045    -560.998     364.677

 6  7  8  9  10  11  12  13  14  15  25  28  32  33  34  35 0
 6-311+G(2d,p)
 ****
 36  39  40 0
 6-311+G(2d,p)
 ****
 1  2  3  4  5  16  17  18  19  20  21  22  23  24 0
 3-21G
 ****
 26  27  29  30  31  37  38  41  42  43  44  45  46  47 0
 3-21G
 ****
 48 0
 3-21G
 ****


