%nproc=1
%NoSave
%Mem=1900MB
#P OB98/GEN NMR

erre ene a

0 1
  C       -4.398      22.593     -70.730
  O       -3.264      21.801     -70.424
  P       -2.333      21.202     -71.589
  C        0.206      20.949     -71.924
  O       -0.830      21.434     -71.075
  C        1.549      21.564     -71.524
  O        1.476      22.996     -71.730
  C        1.949      21.382     -70.058
  O        2.587      20.148     -69.763
  C        2.957      22.522     -69.902
  O        4.219      22.127     -70.471
  C        2.320      23.637     -70.736
  N        2.115      28.316     -68.673
  C        3.041      27.712     -69.457
  N        3.033      26.456     -69.942
  C        1.902      25.818     -69.593
  C        0.860      26.304     -68.810
  C        1.001      27.622     -68.339
  N        0.041      28.247     -67.562
  N       -0.119      25.344     -68.654
  C        0.307      24.310     -69.340
  N        1.519      24.543     -69.937
  O       -2.639      21.720     -72.953
  O       -2.513      19.619     -71.464
  H        4.599      21.443     -69.884
  H       -2.203      19.184     -72.286
  H        3.907      28.313     -69.709
  H       -0.213      23.371     -69.437
  H        3.067      24.231     -71.278
  H        3.149      22.786     -68.854
  H        1.098      21.563     -69.384
  H        2.327      21.162     -72.191
  H       -0.027      21.242     -72.956
  H        0.165      29.228     -67.380
  H       -0.855      27.789     -67.452
  H        0.237      19.855     -71.876
  P        2.796      19.783     -68.205
  C        2.440      17.590     -66.811
  O        2.382      18.244     -68.065
  O        2.131      20.719     -67.255
  O        4.393      19.742     -68.063
  H        4.834      19.018     -68.549
  H        1.963      16.612     -66.900
  H        1.913      18.165     -66.047
  H        3.484      17.449     -66.518
  H       -4.880      22.892     -69.823
  H       -5.081      22.023     -71.325
  H       -4.090      23.462     -71.273

 3  4  5  6  7  8  9  10  11  12  22  25  29  30  31  32 0
 6-311+G(2d,p)
 ****
 33  36  37 0
 6-311+G(2d,p)
 ****
 1  2  13  14  15  16  17  18  19  20  21  23  24  26 0
 3-21G
 ****
 27  28  34  35  38  39  40  41  42  43  44  45  46  47  48 0
 3-21G
 ****


