%nproc=1
%NoSave
%Mem=1900MB
#P OB98/GEN NMR

erre ene a

0 1
  C     -179.107     170.945     182.126
  O     -178.582     170.560     180.871
  H     -178.365     171.563     182.640
  H     -179.315     170.066     182.740
  H     -180.020     171.532     181.995
  P     -179.486     169.638     179.922
  C     -179.563     167.435     181.265
  O     -178.989     168.133     180.168
  C     -179.902     166.007     180.854
  O     -180.674     166.002     179.638
  C     -178.677     165.128     180.593
  O     -178.146     164.643     181.816
  C     -179.299     164.040     179.735
  O     -180.041     163.129     180.567
  C     -180.256     164.854     178.849
  N     -178.790     163.583     174.166
  C     -179.290     162.794     175.184
  N     -179.369     161.470     174.928
  N     -179.658     163.257     176.350
  C     -179.456     164.587     176.483
  C     -178.954     165.470     175.554
  C     -178.602     164.955     174.248
  O     -178.173     165.623     173.312
  N     -178.834     166.733     176.075
  C     -179.297     166.623     177.304
  N     -179.675     165.335     177.606
  O     -179.542     170.027     178.475
  O     -180.929     169.668     180.610
  H     -179.385     162.614     181.071
  H     -181.483     170.376     180.236
  H     -178.507     163.163     173.297
  H     -179.386     167.438     178.012
  H     -181.159     164.290     178.585
  H     -178.562     163.453     179.186
  H     -178.844     161.038     174.179
  H     -177.922     165.653     179.996
  H     -179.685     160.868     175.679
  H     -180.534     165.572     181.638
  H     -180.468     167.973     181.562
  H     -178.869     167.418     182.111
  P     -176.654     165.017     182.277
  C     -175.613     163.022     181.006
  O     -175.858     163.626     182.268
  O     -176.566     165.779     183.554
  O     -176.026     165.781     181.024
  H     -176.192     166.755     181.033
  H     -175.077     162.106     181.147
  H     -175.032     163.685     180.400
  H     -176.545     162.819     180.521

 6  7  8  9  10  11  12  13  14  15  26  29  33  34 0
 6-311+G(2d,p)
 ****
 36  38  39  40  41 0
 6-311+G(2d,p)
 ****
 1  2  3  4  5  16  17  18  19  20  21  22  23  24  25 0
 3-21G
 ****
 27  28  30  31  32  35  37  42  43  44  45  46  47 0
 3-21G
 ****
 48  49 0
 3-21G
 ****


