%nproc=1
%NoSave
%Mem=1900MB
#P OB98/GEN NMR

erre ene a

0 1
  C      828.659    -395.067    -287.661
  O      827.839    -394.134    -288.348
  P      828.078    -393.956    -289.928
  C      829.801    -392.492    -291.219
  O      829.527    -393.269    -290.059
  C      830.538    -391.194    -290.846
  O      831.888    -391.503    -290.448
  C      830.654    -390.201    -291.981
  O      829.469    -389.421    -292.142
  C      831.794    -389.324    -291.458
  O      831.308    -388.393    -290.481
  C      832.705    -390.358    -290.803
  N      837.135    -389.024    -293.000
  C      836.263    -388.335    -292.254
  N      835.097    -388.757    -291.715
  C      834.847    -390.040    -292.062
  C      835.639    -390.855    -292.860
  C      836.847    -390.317    -293.326
  N      837.752    -391.039    -294.073
  N      835.061    -392.109    -292.981
  C      833.954    -392.030    -292.268
  N      833.782    -390.813    -291.669
  O      827.076    -392.778    -290.316
  O      827.872    -395.178    -290.747
  H      830.664    -388.877    -289.924
  H      826.869    -392.820    -291.275
  H      836.539    -387.296    -292.047
  H      833.242    -392.840    -292.148
  H      833.180    -389.984    -289.879
  H      832.261    -388.737    -292.253
  H      830.966    -390.672    -292.912
  H      830.006    -390.756    -289.986
  H      828.855    -392.235    -291.710
  H      838.662    -390.630    -294.219
  H      837.614    -392.036    -294.130
  H      830.413    -393.089    -291.913
  P      829.175    -388.862    -293.618
  C      830.203    -386.937    -295.062
  O      830.122    -387.590    -293.783
  O      827.709    -388.228    -293.476
  O      829.255    -389.887    -294.685
  H      827.256    -388.224    -294.329
  H      830.625    -385.941    -294.909
  H      829.190    -386.836    -295.496
  H      830.835    -387.521    -295.706
  H      828.392    -395.082    -286.625
  H      829.685    -394.781    -287.761
  H      828.518    -396.042    -288.079

 3  4  5  6  7  8  9  10  11  12  22  25  29  30  31  32 0
 6-311+G(2d,p)
 ****
 33  36  37 0
 6-311+G(2d,p)
 ****
 1  2  13  14  15  16  17  18  19  20  21  23  24  26 0
 3-21G
 ****
 27  28  34  35  38  39  40  41  42  43  44  45  46  47  48 0
 3-21G
 ****


