%nproc=1
%NoSave
%Mem=1900MB
#P OB98/GEN NMR

erre ene a

0 1
  C      -25.649     394.805    -442.883
  O      -24.334     395.000    -443.364
  H      -25.816     393.733    -442.748
  H      -26.376     395.186    -443.607
  H      -25.779     395.309    -441.922
  P      -23.878     396.518    -443.616
  C      -22.877     397.017    -441.265
  O      -23.934     397.248    -442.187
  C      -22.286     398.347    -440.813
  O      -21.396     398.862    -441.833
  C      -23.327     399.440    -440.598
  O      -24.005     399.303    -439.361
  C      -22.462     400.688    -440.677
  O      -21.822     400.969    -439.426
  C      -21.421     400.304    -441.736
  N      -20.868     404.472    -444.637
  C      -20.390     404.151    -443.414
  N      -20.572     403.015    -442.712
  C      -21.317     402.140    -443.413
  C      -21.870     402.323    -444.667
  C      -21.620     403.557    -445.293
  N      -22.128     403.893    -446.531
  N      -22.605     401.214    -445.042
  C      -22.489     400.375    -444.034
  N      -21.717     400.888    -443.031
  O      -25.117     397.141    -444.413
  O      -22.596     396.681    -444.362
  H      -21.508     400.111    -439.080
  H      -24.911     397.166    -445.367
  H      -19.787     404.916    -442.931
  H      -22.948     399.394    -443.983
  H      -20.409     400.630    -441.458
  H      -23.062     401.560    -440.947
  H      -24.040     399.449    -441.429
  H      -21.700     398.180    -439.903
  H      -22.096     396.421    -441.753
  H      -23.267     396.455    -440.410
  H      -21.963     404.819    -446.883
  H      -22.780     403.261    -446.977
  P      -25.349     400.148    -439.151
  C      -27.098     398.459    -440.100
  O      -26.390     399.677    -440.278
  O      -24.947     401.630    -439.599
  O      -25.894     400.119    -437.759
  H      -25.414     402.286    -439.044
  H      -27.745     398.297    -440.937
  H      -27.681     398.513    -439.204
  H      -26.402     397.650    -440.025

 6  7  8  9  10  11  12  13  14  15  25  28  32  33  34  35 0
 6-311+G(2d,p)
 ****
 36  37  40 0
 6-311+G(2d,p)
 ****
 1  2  3  4  5  16  17  18  19  20  21  22  23  24 0
 3-21G
 ****
 26  27  29  30  31  38  39 41  42  43  44  45  46  47  48 0
 3-21G
 ****


