%nproc=1
%NoSave
%Mem=1900MB
#P OB98/GEN NMR

erre ene a

0 1
  C      221.860     240.237    1081.731
  O      222.106     241.230    1082.702
  H      222.812     239.929    1081.299
  H      221.222     240.632    1080.935
  H      221.382     239.367    1082.194
  P      220.818     241.849    1083.440
  C      221.698     242.807    1085.688
  O      221.408     243.066    1084.318
  C      222.745     243.780    1086.213
  O      224.008     243.562    1085.557
  C      222.411     245.261    1085.996
  O      221.540     245.727    1087.020
  C      223.782     245.898    1086.086
  O      224.144     246.067    1087.473
  C      224.688     244.848    1085.425
  N      227.250     247.813    1082.085
  C      227.002     247.942    1083.403
  N      226.257     247.158    1084.219
  C      225.783     246.101    1083.535
  C      225.937     245.827    1082.191
  C      226.732     246.730    1081.453
  N      226.984     246.583    1080.099
  N      225.283     244.666    1081.835
  C      224.776     244.219    1082.981
  N      225.010     245.079    1084.018
  O      219.958     240.874    1084.172
  O      220.114     242.615    1082.225
  H      224.938     246.641    1087.485
  H      220.781     243.064    1081.663
  H      227.445     248.833    1083.874
  H      224.253     243.268    1083.099
  H      225.644     244.758    1085.959
  H      223.814     246.893    1085.623
  H      221.984     245.434    1084.985
  H      222.908     243.577    1087.292
  H      222.061     241.776    1085.814
  H      227.384     247.366    1079.626
  H      226.485     245.849    1079.613
  H      220.769     242.913    1086.257
  P      220.483     246.895    1086.747
  C      218.626     245.760    1088.129
  O      219.504     246.875    1088.021
  O      219.807     246.822    1085.412
  O      221.316     248.243    1086.946
  H      220.844     248.998    1086.554
  H      218.029     245.860    1089.011
  H      219.200     244.859    1088.187
  H      217.989     245.723    1087.270

 6  7  8  9  10  11  12  13  14  15  25  28  32  33  34  35 0
 6-311+G(2d,p)
 ****
 36  39  40 0
 6-311+G(2d,p)
 ****
 1  2  3  4  5  16  17  18  19  20  21  22  23  24 0
 3-21G
 ****
 26  27  29  30  31  37  38  41  42  43  44  45  46  47 0
 3-21G
 ****
 48 0
 3-21G
 ****


