%nproc=1
%NoSave
%Mem=1900MB
#P OB98/GEN NMR

erre ene a

0 1
  C     -117.558     432.364    1046.800
  O     -116.877     431.145    1046.545
  P     -117.423     429.814    1047.271
  C     -115.550     430.129    1049.098
  O     -116.213     429.278    1048.175
  C     -114.781     429.294    1050.121
  O     -115.712     428.547    1050.940
  C     -113.840     428.268    1049.514
  O     -112.644     428.851    1049.043
  C     -113.651     427.313    1050.703
  O     -112.688     427.853    1051.623
  C     -115.052     427.321    1051.343
  N     -115.849     426.149    1050.995
  C     -115.449     424.940    1051.552
  O     -114.479     424.834    1052.311
  N     -116.197     423.840    1051.205
  C     -117.224     423.839    1050.323
  O     -117.838     422.805    1050.018
  C     -117.590     425.120    1049.734
  C     -116.899     426.217    1050.089
  O     -117.489     428.812    1046.025
  O     -118.719     430.024    1047.967
  H     -116.834     429.050    1045.336
  H     -113.127     428.609    1052.067
  H     -115.936     422.957    1051.613
  H     -118.412     425.152    1049.022
  H     -117.135     427.179    1049.656
  H     -114.967     427.372    1052.434
  H     -113.297     426.324    1050.391
  H     -114.341     427.733    1048.702
  H     -114.234     429.984    1050.777
  H     -116.302     430.742    1049.617
  H     -114.877     430.793    1048.548
  P     -112.573     429.157    1047.458
  C     -112.010     426.609    1047.229
  O     -111.760     427.939    1046.809
  O     -111.549     430.377    1047.424
  O     -113.906     429.434    1046.840
  H     -110.796     430.262    1048.024
  H     -111.651     425.921    1046.463
  H     -113.086     426.441    1047.383
  H     -111.475     426.407    1048.161
  H     -117.088     433.156    1046.255
  H     -117.521     432.581    1047.847
  H     -118.578     432.274    1046.490

 3  4  5  6  7  8  9  10  11  12  13  24  28  29  30  31  32 0
 6-311+G(2d,p)
 ****
 33  34 0
 6-311+G(2d,p)
 ****
 1  2  14  15  16  17  18  19  20  21  22  23  25  26  27 0
 3-21G
 ****
 35  36  37  38  39  40  41  42  43  44  45 0
 3-21G
 ****


