%nproc=1
%NoSave
%Mem=1900MB
#P OB98/GEN NMR

erre ene a

0 1
  C      -94.708     346.813     -54.973
  O      -95.450     347.133     -56.142
  P      -97.048     347.234     -56.004
  C      -97.181     349.827     -56.027
  O      -97.330     348.632     -55.269
  C      -98.297     350.813     -55.699
  O      -99.539     350.370     -56.282
  C      -98.578     350.980     -54.213
  O      -97.673     351.880     -53.595
  C      -99.975     351.574     -54.249
  O      -99.902     352.980     -54.553
  C     -100.616     350.814     -55.415
  N     -105.238     348.631     -55.514
  C     -104.796     349.821     -55.971
  N     -103.550     350.336     -55.897
  C     -102.730     349.502     -55.237
  C     -103.049     348.274     -54.682
  C     -104.372     347.831     -54.848
  N     -104.814     346.605     -54.406
  N     -101.944     347.712     -54.083
  C     -100.972     348.576     -54.282
  N     -101.395     349.669     -54.983
  O      -97.382     346.150     -54.874
  O      -97.807     346.987     -57.262
  H     -100.817     353.319     -54.543
  H      -98.309     345.857     -54.956
  H     -105.537     350.438     -56.473
  H      -99.952     348.449     -53.945
  H     -101.274     351.451     -56.016
  H     -100.502     351.482     -53.294
  H      -98.604     350.009     -53.701
  H      -98.038     351.779     -56.153
  H      -97.222     349.582     -57.093
  H     -105.715     346.286     -54.724
  H     -104.120     345.934     -54.094
  H      -96.204     350.269     -55.807
  P      -97.415     351.679     -52.022
  C      -95.439     350.000     -51.862
  O      -96.840     350.193     -51.874
  O      -98.895     351.586     -51.421
  O      -96.612     352.768     -51.392
  H      -98.900     351.862     -50.485
  H      -95.223     349.011     -51.450
  H      -94.942     350.752     -51.242
  H      -95.049     350.050     -52.883
  H      -93.665     346.780     -55.210
  H      -95.020     345.859     -54.603
  H      -94.880     347.559     -54.226

 3  4  5  6  7  8  9  10  11  12  22  25  29  30  31  32 0
 6-311+G(2d,p)
 ****
 33  36  37 0
 6-311+G(2d,p)
 ****
 1  2  13  14  15  16  17  18  19  20  21  23  24  26 0
 3-21G
 ****
 27  28  34  35  38  39  40  41  42  43  44  45  46  47  48 0
 3-21G
 ****


