%nproc=1
%NoSave
%Mem=1900MB
#P OB98/GEN NMR

erre ene a

0 1
  C      152.091     460.061     452.783
  O      151.281     459.625     451.688
  P      151.758     458.350     450.835
  C      153.267     459.344     448.992
  O      153.217     458.651     450.231
  C      154.678     459.283     448.389
  O      155.041     457.899     448.074
  C      154.795     460.083     447.086
  O      156.120     460.637     446.960
  C      154.640     459.017     446.017
  O      155.176     459.445     444.766
  C      155.373     457.845     446.674
  N      156.365     454.410     443.011
  C      156.975     455.566     443.344
  N      156.672     456.413     444.350
  C      155.615     455.964     445.045
  C      154.894     454.799     444.821
  C      155.301     454.009     443.734
  N      154.647     452.849     443.371
  N      153.870     454.681     445.745
  C      153.944     455.759     446.473
  N      154.999     456.558     446.114
  O      150.771     457.827     449.846
  O      152.072     457.258     451.965
  H      156.148     459.494     444.867
  H      151.732     456.388     451.670
  H      157.823     455.842     442.724
  H      153.251     456.036     447.267
  H      156.457     457.943     446.587
  H      153.570     458.797     445.878
  H      154.066     460.889     446.980
  H      155.397     459.635     449.133
  H      152.978     460.389     449.147
  H      154.938     452.399     442.511
  H      153.774     452.609     443.819
  H      152.520     458.921     448.315
  P      156.268     462.185     447.373
  C      154.332     462.865     445.750
  O      154.857     462.869     447.061
  O      157.464     462.849     446.772
  O      156.331     462.096     448.976
  H      155.606     461.569     449.371
  H      153.310     463.257     445.778
  H      154.302     461.849     445.344
  H      154.944     463.499     445.107
  H      151.639     460.914     453.244
  H      153.064     460.324     452.424
  H      152.176     459.272     453.500

 3  4  5  6  7  8  9  10  11  12  22  25  29  30  31  32 0
 6-311+G(2d,p)
 ****
 33  36  37 0
 6-311+G(2d,p)
 ****
 1  2  13  14  15  16  17  18  19  20  21  23  24  26 0
 3-21G
 ****
 27  28  34  35  38  39  40  41  42  43  44  45  46  47  48 0
 3-21G
 ****


