%nproc=1
%NoSave
%Mem=1900MB
#P OB98/GEN NMR

erre ene a

0 1
  C      -43.479     -76.172    -347.482
  O      -42.461     -75.194    -347.429
  H      -44.437     -75.704    -347.228
  H      -43.275     -76.969    -346.762
  H      -43.552     -76.595    -348.489
  P      -40.991     -75.645    -347.882
  C      -39.631     -76.058    -345.702
  O      -40.440     -76.616    -346.727
  C      -38.816     -77.169    -345.027
  O      -39.735     -78.065    -344.342
  C      -37.999     -78.015    -346.020
  O      -36.754     -78.375    -345.406
  C      -38.861     -79.252    -346.206
  O      -38.128     -80.394    -346.634
  C      -39.461     -79.411    -344.806
  N      -40.681     -80.214    -344.803
  C      -40.554     -81.571    -345.105
  O      -39.490     -82.148    -345.307
  N      -41.738     -82.272    -345.188
  C      -42.993     -81.757    -345.018
  O      -44.019     -82.426    -345.126
  C      -43.062     -80.318    -344.708
  C      -41.917     -79.626    -344.618
  O      -40.117     -74.314    -347.689
  O      -40.883     -76.207    -349.260
  H      -40.114     -73.785    -348.509
  H      -38.721     -81.172    -346.588
  H      -41.666     -83.252    -345.406
  H      -44.040     -79.876    -344.575
  H      -41.938     -78.562    -344.408
  H      -38.728     -79.847    -344.118
  H      -39.645     -79.056    -346.945
  H      -37.814     -77.499    -346.962
  H      -38.168     -76.723    -344.260
  H      -40.273     -75.580    -344.958
  H      -38.961     -75.312    -346.135
  P      -35.470     -77.459    -345.744
  C      -35.294     -78.186    -348.256
  O      -35.564     -77.155    -347.323
  O      -34.285     -78.519    -345.609
  O      -35.364     -76.258    -344.859
  H      -34.517     -79.409    -345.925
  H      -35.404     -77.805    -349.250
  H      -35.981     -78.993    -348.105
  H      -34.293     -78.539    -348.118

 6  7  8  9  10  11  12  13  14  15  16  27  31  32  33  34  35 0
 6-311+G(2d,p)
 ****
 36  37 0
 6-311+G(2d,p)
 ****
 1  2  3  4  5  17  18  19  20  21  22  23  24  25 0
 3-21G
 ****
 26  28  29  30  38  39  40  41  42  43  44  45 0
 3-21G
 ****


