%nproc=1
%NoSave
%Mem=1900MB
#P OB98/GEN NMR

erre ene a

0 1
  C      224.754     -39.359    -273.563
  O      225.273     -39.429    -272.251
  H      224.077     -40.198    -273.747
  H      224.193     -38.426    -273.670
  H      225.566     -39.368    -274.294
  P      226.144     -40.727    -271.885
  C      224.967     -40.834    -269.570
  O      225.301     -41.517    -270.771
  C      223.554     -41.213    -269.141
  O      222.675     -41.238    -270.287
  C      223.442     -42.596    -268.505
  O      223.817     -42.588    -267.139
  C      221.955     -42.857    -268.667
  O      221.221     -42.115    -267.676
  C      221.689     -42.284    -270.066
  N      220.576     -43.334    -274.949
  C      220.305     -42.263    -274.173
  N      220.634     -42.062    -272.880
  C      221.310     -43.115    -272.393
  C      221.649     -44.279    -273.061
  C      221.258     -44.367    -274.408
  N      221.519     -45.465    -275.198
  N      222.315     -45.149    -272.217
  C      222.400     -44.503    -271.072
  N      221.798     -43.273    -271.124
  O      227.377     -40.131    -271.053
  O      226.585     -41.559    -273.043
  H      221.514     -41.188    -267.747
  H      228.120     -40.762    -271.058
  H      219.751     -41.462    -274.655
  H      222.885     -44.882    -270.182
  H      220.698     -41.825    -270.152
  H      221.690     -43.908    -268.545
  H      224.004     -43.347    -269.073
  H      223.188     -40.438    -268.456
  H      225.014     -39.756    -269.747
  H      221.038     -45.507    -276.083
  H      221.893     -46.296    -274.760
  H      225.688     -41.101    -268.793
  P      225.183     -43.335    -266.745
  C      223.781     -45.364    -265.912
  O      224.840     -44.900    -266.747
  O      225.351     -42.991    -265.194
  O      226.370     -42.929    -267.552
  H      226.291     -43.016    -264.931
  H      223.676     -46.423    -266.024
  H      222.868     -44.883    -266.194
  H      224.005     -45.134    -264.891

 6  7  8  9  10  11  12  13  14  15  25  28  32  33  34  35 0
 6-311+G(2d,p)
 ****
 36  39  40 0
 6-311+G(2d,p)
 ****
 1  2  3  4  5  16  17  18  19  20  21  22  23  24 0
 3-21G
 ****
 26  27  29  30  31  37  38  41  42  43  44  45  46  47 0
 3-21G
 ****
 48 0
 3-21G
 ****


