%nproc=1
%NoSave
%Mem=1900MB
#P OB98/GEN NMR

erre ene a

0 1
  C       54.126      81.822     -51.069
  O       54.779      83.097     -51.016
  P       54.074      84.439     -51.542
  C       51.580      84.337     -50.906
  O       52.873      84.816     -50.547
  C       50.472      85.268     -50.406
  O       50.494      85.363     -48.968
  C       50.567      86.700     -50.924
  O       50.081      86.784     -52.250
  C       49.737      87.448     -49.885
  O       48.334      87.320     -50.175
  C       50.087      86.693     -48.596
  N       51.442      91.006     -46.206
  C       50.314      90.651     -46.858
  N       50.030      89.484     -47.475
  C       51.053      88.621     -47.347
  C       52.266      88.843     -46.713
  C       52.448      90.104     -46.122
  N       53.603      90.468     -45.471
  N       53.077      87.733     -46.810
  C       52.359      86.849     -47.475
  N       51.130      87.339     -47.821
  O       53.684      84.402     -52.984
  O       55.151      85.595     -51.277
  H       48.173      87.757     -51.031
  H       55.027      86.314     -51.924
  H       49.534      91.408     -46.893
  H       52.683      85.847     -47.725
  H       49.214      86.583     -47.942
  H       49.967      88.516     -49.849
  H       51.605      87.047     -50.877
  H       49.509      84.824     -50.688
  H       51.447      83.341     -50.468
  H       53.669      91.403     -45.102
  H       54.376      89.818     -45.444
  H       51.531      84.252     -51.997
  P       51.105      86.930     -53.472
  C       52.229      85.332     -55.135
  O       51.187      85.499     -54.192
  O       52.421      87.551     -53.142
  O       50.298      87.812     -54.539
  H       50.929      88.334     -55.068
  H       51.939      85.793     -56.083
  H       52.390      84.263     -55.294
  H       53.158      85.782     -54.777
  H       54.775      81.072     -50.668
  H       53.890      81.584     -52.085
  H       53.225      81.859     -50.493

 3  4  5  6  7  8  9  10  11  12  22  25  29  30  31  32 0
 6-311+G(2d,p)
 ****
 33  36  37 0
 6-311+G(2d,p)
 ****
 1  2  13  14  15  16  17  18  19  20  21  23  24  26 0
 3-21G
 ****
 27  28  34  35  38  39  40  41  42  43  44  45  46  47  48 0
 3-21G
 ****


