%nproc=1
%NoSave
%Mem=1900MB
#P OB98/GEN NMR

erre ene a

0 1
  C       12.019    -387.131     275.817
  O       12.648    -385.915     276.242
  P       11.741    -384.599     276.454
  C       11.487    -383.742     274.033
  O       10.848    -384.364     275.141
  C       10.498    -383.505     272.877
  O       11.159    -382.785     271.803
  C        9.935    -384.813     272.295
  O        8.510    -384.829     272.210
  C       10.681    -384.965     270.981
  O        9.998    -385.785     270.042
  C       10.948    -383.509     270.571
  N       12.106    -383.396     269.665
  C       11.826    -383.429     268.307
  O       10.697    -383.615     267.854
  N       12.910    -383.286     267.467
  C       14.209    -383.207     267.856
  O       15.154    -383.136     267.071
  C       14.453    -383.248     269.318
  C       13.399    -383.337     270.136
  O       12.464    -383.393     276.956
  O       10.651    -385.088     277.528
  H        9.108    -385.388     269.882
  H       10.485    -384.356     278.148
  H       12.716    -383.293     266.478
  H       15.474    -383.209     269.655
  H       13.545    -383.388     271.214
  H       10.084    -383.085     270.057
  H       11.643    -385.457     271.178
  H       10.171    -385.671     272.947
  H        9.686    -382.890     273.268
  H       12.302    -384.384     273.681
  H       11.958    -382.800     274.367
  P        7.573    -385.896     272.945
  C        7.542    -387.782     271.146
  O        7.976    -387.365     272.422
  O        6.102    -385.610     272.895
  O        8.092    -385.877     274.456
  H        7.332    -385.927     275.062
  H        7.571    -388.877     271.110
  H        8.214    -387.374     270.383
  H        6.520    -387.444     270.944
  H       12.756    -387.901     275.725
  H       11.546    -386.976     274.870
  H       11.285    -387.424     276.539

 3  4  5  6  7  8  9  10  11  12  13  23  28  29  30  31  32 0
 6-311+G(2d,p)
 ****
 33  34 0
 6-311+G(2d,p)
 ****
 1  2  14  15  16  17  18  19  20  21  22  24  25  26  27 0
 3-21G
 ****
 35  36  37  38  39  40  41  42  43  44  45 0
 3-21G
 ****


