%nproc=1
%NoSave
%Mem=1900MB
#P OB98/GEN NMR

erre ene a

0 1
  C     -181.043     -19.863     151.600
  O     -182.139     -19.563     152.445
  P     -181.839     -19.024     153.923
  C     -180.797     -19.987     156.103
  O     -181.147     -20.213     154.747
  C     -179.588     -20.839     156.492
  O     -178.406     -20.350     155.788
  C     -179.267     -20.820     157.995
  O     -178.747     -22.113     158.340
  C     -178.158     -19.788     158.078
  O     -177.385     -19.892     159.266
  C     -177.396     -20.104     156.789
  N     -176.489     -19.027     156.386
  C     -175.130     -19.219     156.616
  O     -174.656     -20.228     157.135
  N     -174.316     -18.168     156.286
  C     -174.724     -16.943     155.841
  O     -173.953     -16.006     155.674
  C     -176.173     -16.799     155.618
  C     -176.973     -17.830     155.894
  O     -183.298     -18.908     154.574
  O     -181.102     -17.727     153.974
  H     -176.739     -19.163     159.258
  H     -183.607     -17.983     154.557
  H     -173.328     -18.293     156.434
  H     -176.528     -15.847     155.246
  H     -178.048     -17.747     155.757
  H     -176.826     -21.036     156.904
  H     -178.594     -18.782     158.051
  H     -180.127     -20.575     158.625
  H     -179.763     -21.869     156.153
  H     -181.643     -20.252     156.740
  H     -180.583     -18.922     156.253
  P     -179.140     -22.722     159.775
  C     -178.265     -22.291     162.200
  O     -178.403     -21.824     160.875
  O     -178.298     -24.085     159.761
  O     -180.611     -22.928     159.956
  H     -177.398     -23.967     159.416
  H     -178.130     -23.375     162.233
  H     -179.156     -22.023     162.773
  H     -177.394     -21.813     162.657
  H     -181.406     -20.209     150.655
  H     -180.442     -20.625     152.052
  H     -180.453     -18.982     151.455

 3  4  5  6  7  8  9  10  11  12  13  23  28  29  30  31  32 0
 6-311+G(2d,p)
 ****
 33  34 0
 6-311+G(2d,p)
 ****
 1  2  14  15  16  17  18  19  20  21  22  24  25  26 0
 3-21G
 ****
 27  35  36  37  38  39  40  41  42  43  44  45 0
 3-21G
 ****


