%nproc=1
%NoSave
%Mem=1900MB
#P OB98/GEN NMR

erre ene a

0 1
  C     -132.817     916.418    -217.363
  O     -133.731     915.884    -216.420
  H     -133.365     916.652    -218.279
  H     -132.044     915.681    -217.592
  H     -132.358     917.336    -216.985
  P     -133.218     915.594    -214.929
  C     -134.964     913.695    -215.014
  O     -134.339     914.697    -214.212
  C     -136.014     912.955    -214.181
  O     -135.381     912.252    -213.090
  C     -137.047     913.876    -213.535
  O     -138.002     914.312    -214.484
  C     -137.605     912.971    -212.444
  O     -138.582     912.061    -212.982
  C     -136.330     912.212    -211.992
  N     -135.753     912.769    -210.769
  C     -136.562     912.766    -209.637
  O     -137.725     912.345    -209.650
  N     -136.000     913.273    -208.500
  C     -134.778     913.881    -208.410
  O     -134.365     914.407    -207.384
  C     -133.982     913.889    -209.638
  C     -134.496     913.331    -210.744
  O     -132.779     916.789    -214.153
  O     -132.011     914.559    -215.138
  H     -139.410     912.571    -213.068
  H     -131.162     915.020    -215.012
  H     -136.583     913.284    -207.670
  H     -132.999     914.351    -209.601
  H     -133.913     913.337    -211.661
  H     -136.561     911.154    -211.820
  H     -138.092     913.530    -211.646
  H     -136.555     914.735    -213.063
  H     -136.505     912.208    -214.823
  H     -134.203     912.986    -215.344
  H     -135.427     914.167    -215.890
  P     -138.093     915.867    -214.866
  C     -140.674     915.985    -214.819
  O     -139.489     916.110    -215.617
  O     -136.893     916.432    -215.553
  O     -138.324     916.590    -213.453
  H     -137.583     917.215    -213.277
  H     -141.535     916.168    -215.428
  H     -140.643     916.697    -214.021
  H     -140.728     914.996    -214.413

 6  7  8  9  10  11  12  13  14  15  16  26  31  32  33  34  35 0
 6-311+G(2d,p)
 ****
 36  37 0
 6-311+G(2d,p)
 ****
 1  2  3  4  5  17  18  19  20  21  22  23  24  25 0
 3-21G
 ****
 27  28  29  30  38  39  40  41  42  43  44  45 0
 3-21G
 ****


