%nproc=1
%NoSave
%Mem=1900MB
#P OB98/GEN NMR

erre ene a

0 1
  C      142.058     178.147     -22.707
  O      143.456     178.333     -22.779
  H      141.844     177.074     -22.775
  H      141.564     178.652     -23.542
  H      141.663     178.523     -21.759
  P      144.052     179.804     -22.536
  C      143.961     182.075     -23.757
  O      143.663     180.684     -23.820
  C      144.075     182.649     -25.168
  O      145.204     182.058     -25.852
  C      142.868     182.356     -26.053
  O      141.766     183.179     -25.715
  C      143.458     182.597     -27.431
  O      143.469     183.994     -27.752
  C      144.899     182.062     -27.265
  N      145.060     180.730     -27.847
  C      145.306     180.683     -29.215
  O      145.398     181.684     -29.925
  N      145.381     179.428     -29.767
  C      145.101     178.256     -29.119
  O      144.938     177.188     -29.702
  C      144.908     178.362     -27.662
  C      144.887     179.578     -27.105
  O      145.491     179.860     -22.137
  O      143.106     180.409     -21.393
  H      143.572     180.364     -20.534
  H      142.589     184.337     -27.490
  H      145.517     179.387     -30.769
  H      144.758     177.447     -27.102
  H      144.712     179.684     -26.036
  H      145.617     182.742     -27.741
  H      142.887     182.079     -28.208
  H      142.592     181.297     -25.965
  H      144.251     183.730     -25.089
  H      144.915     182.209     -23.229
  H      143.169     182.584     -23.195
  P      140.300     182.546     -25.573
  C      138.579     181.345     -27.063
  O      139.849     181.987     -27.007
  O      139.295     183.420     -24.898
  O      140.537     181.200     -24.732
  H      139.904     181.176     -23.987
  H      138.389     181.017     -28.064
  H      137.817     182.034     -26.763
  H      138.576     180.502     -26.404

 6  7  8  9  10  11  12  13  14  15  16  27  31  32  33  34  35 0
 6-311+G(2d,p)
 ****
 36  37 0
 6-311+G(2d,p)
 ****
 1  2  3  4  5  17  18  19  20  21  22  23  24  25 0
 3-21G
 ****
 26  28  29  30  38  39  40  41  42  43  44  45 0
 3-21G
 ****


