%nproc=1
%NoSave
%Mem=1900MB
#P OB98/GEN NMR

erre ene a

0 1
  C     -269.063     200.096     232.110
  O     -267.671     199.865     232.054
  H     -269.242     201.029     232.647
  H     -269.552     199.282     232.653
  H     -269.491     200.182     231.108
  P     -267.114     198.722     231.078
  C     -265.577     200.236     229.665
  O     -265.648     199.190     230.623
  C     -264.195     200.896     229.679
  O     -264.004     201.556     230.964
  C     -263.032     199.911     229.491
  O     -261.978     200.616     228.822
  C     -262.642     199.618     230.925
  O     -261.352     199.053     231.006
  C     -262.814     201.001     231.558
  N     -262.902     200.944     233.015
  C     -261.983     201.708     233.724
  O     -261.107     202.383     233.182
  N     -262.069     201.642     235.086
  C     -262.926     200.850     235.792
  O     -262.937     200.804     237.017
  C     -263.846     200.028     234.990
  C     -263.796     200.113     233.659
  O     -268.018     198.329     229.959
  O     -266.799     197.492     232.052
  H     -260.738     199.522     230.402
  H     -266.916     196.648     231.575
  H     -261.416     202.197     235.614
  H     -264.533     199.382     235.521
  H     -264.461     199.521     233.040
  H     -261.970     201.655     231.295
  H     -263.338     198.903     231.377
  H     -263.312     199.017     228.930
  H     -264.175     201.681     228.914
  H     -266.344     200.975     229.917
  H     -265.786     199.833     228.669
  P     -261.074     199.925     227.691
  C     -262.722     199.801     225.714
  O     -261.567     200.438     226.252
  O     -260.973     198.439     227.809
  O     -259.633     200.604     227.852
  H     -258.942     199.985     227.551
  H     -262.951     200.225     224.759
  H     -263.550     199.945     226.376
  H     -262.533     198.754     225.603

 6  7  8  9  10  11  12  13  14  15  16  26  31  32  33  34  35 0
 6-311+G(2d,p)
 ****
 36  37 0
 6-311+G(2d,p)
 ****
 1  2  3  4  5  17  18  19  20  21  22  23  24  25 0
 3-21G
 ****
 27  28  29  30  38  39  40  41  42  43  44  45 0
 3-21G
 ****


