%nproc=1
%NoSave
%Mem=1900MB
#P OB98/GEN NMR

erre ene a

0 1
  C      -20.858     -14.913      54.016
  O      -21.828     -13.911      54.258
  H      -19.920     -14.431      53.732
  H      -21.184     -15.561      53.197
  H      -20.694     -15.504      54.920
  P      -23.281     -14.419      54.714
  C      -23.797     -13.935      52.223
  O      -24.019     -14.788      53.339
  C      -24.659     -14.367      51.040
  O      -24.173     -15.601      50.483
  C      -26.122     -14.616      51.387
  O      -26.843     -13.396      51.446
  C      -26.553     -15.468      50.203
  O      -26.813     -14.624      49.064
  C      -25.306     -16.332      49.940
  N      -25.525     -21.372      48.987
  C      -25.679     -20.298      48.181
  N      -25.650     -18.990      48.511
  C      -25.436     -18.834      49.827
  C      -25.259     -19.834      50.772
  C      -25.301     -21.158      50.304
  N      -25.132     -22.251      51.127
  N      -25.065     -19.294      52.025
  C      -25.069     -17.990      51.832
  N      -25.327     -17.660      50.525
  O      -24.020     -13.517      55.641
  O      -22.926     -15.864      55.309
  H      -26.754     -15.182      48.266
  H      -22.242     -16.297      54.769
  H      -25.846     -20.520      47.131
  H      -24.877     -17.247      52.597
  H      -25.126     -16.468      48.868
  H      -27.472     -16.023      50.403
  H      -26.221     -15.203      52.306
  H      -24.566     -13.600      50.260
  H      -22.739     -13.948      51.938
  H      -25.346     -23.159      50.745
  H      -25.091     -22.092      52.124
  H      -24.059     -12.918      52.530
  P      -27.771     -13.056      52.708
  C      -29.581     -14.342      51.413
  O      -28.982     -14.111      52.682
  O      -28.193     -11.632      52.816
  O      -26.914     -13.521      53.975
  H      -27.036     -12.895      54.715
  H      -30.370     -15.057      51.516
  H      -28.845     -14.719      50.734
  H      -29.979     -13.424      51.034

 6  7  8  9  10  11  12  13  14  15  25  28  32  33  34  35 0
 6-311+G(2d,p)
 ****
 36  39  40 0
 6-311+G(2d,p)
 ****
 1  2  3  4  5  16  17  18  19  20  21  22  23  24 0
 3-21G
 ****
 26  27  29  30  31  37  38  41  42  43  44  45  46  47 0
 3-21G
 ****
 48 0
 3-21G
 ****


