%nproc=1
%NoSave
%Mem=1900MB
#P OB98/GEN NMR

erre ene a

0 1
  C     -205.193     156.056    -254.516
  O     -205.929     157.255    -254.586
  H     -205.583     155.365    -255.270
  H     -205.310     155.591    -253.534
  H     -204.136     156.238    -254.723
  P     -205.598     158.442    -253.556
  C     -207.549     157.620    -252.105
  O     -206.981     158.733    -252.784
  C     -209.053     157.809    -251.908
  O     -209.287     158.890    -250.965
  C     -209.811     158.147    -253.201
  O     -210.981     157.334    -253.302
  C     -210.214     159.601    -253.005
  O     -211.353     159.971    -253.775
  C     -210.394     159.648    -251.485
  N     -210.420     161.014    -250.977
  C     -211.636     161.693    -251.097
  O     -212.613     161.134    -251.600
  N     -211.706     163.002    -250.695
  C     -210.640     163.596    -250.257
  N     -210.768     164.902    -249.903
  C     -209.329     162.925    -250.141
  C     -209.291     161.647    -250.511
  O     -204.954     159.639    -254.171
  O     -204.699     157.760    -252.420
  H     -211.512     160.933    -253.655
  H     -204.175     158.460    -251.965
  H     -208.469     163.467    -249.775
  H     -208.373     161.071    -250.463
  H     -211.325     159.146    -251.183
  H     -209.381     160.250    -253.302
  H     -209.207     158.019    -254.098
  H     -209.457     156.901    -251.438
  H     -211.684     165.324    -250.004
  H     -207.046     157.505    -251.139
  H     -210.006     165.473    -249.572
  H     -207.378     156.723    -252.709
  P     -210.751     155.818    -253.776
  C     -211.425     156.394    -256.213
  O     -211.645     155.565    -255.082
  O     -211.475     154.962    -252.634
  O     -209.311     155.448    -253.905
  H     -210.810     154.493    -252.098
  H     -212.091     156.108    -257.000
  H     -210.413     156.285    -256.544
  H     -211.605     157.415    -255.947

 6  7  8  9  10  11  12  13  14  15  16  26  30  31  32  33  35 0
 6-311+G(2d,p)
 ****
 37  38 0
 6-311+G(2d,p)
 ****
 1  2  3  4  5  17  18  19  20  21  22  23  24  25 0
 3-21G
 ****
 27  28  29  34  36  39  40  41  42  43  44  45  46 0
 3-21G
 ****


