%nproc=1
%NoSave
%Mem=1900MB
#P OB98/GEN NMR

erre ene a

0 1
  C     -175.597     427.250    -293.218
  O     -175.296     427.379    -294.595
  H     -174.842     426.610    -292.751
  H     -176.578     426.786    -293.069
  H     -175.579     428.230    -292.735
  P     -176.350     428.144    -295.529
  C     -176.534     430.024    -293.763
  O     -177.224     429.054    -294.545
  C     -177.241     431.370    -293.853
  O     -177.012     431.970    -295.150
  C     -178.758     431.264    -293.717
  O     -179.116     431.063    -292.360
  C     -179.197     432.581    -294.321
  O     -179.050     433.664    -293.396
  C     -178.199     432.727    -295.499
  N     -178.756     432.274    -296.770
  C     -179.529     433.206    -297.466
  O     -179.700     434.336    -297.016
  N     -180.100     432.830    -298.657
  C     -179.908     431.633    -299.112
  N     -180.501     431.308    -300.294
  C     -179.089     430.616    -298.415
  C     -178.553     431.006    -297.256
  O     -177.154     427.298    -296.475
  O     -175.446     429.215    -296.309
  H     -179.260     434.476    -293.901
  H     -175.103     428.834    -297.140
  H     -178.955     429.631    -298.835
  H     -177.939     430.321    -296.685
  H     -177.886     433.777    -295.611
  H     -180.236     432.550    -294.639
  H     -179.134     430.452    -294.340
  H     -176.818     432.040    -293.099
  H     -181.062     432.033    -300.737
  H     -175.520     430.104    -294.172
  H     -180.352     430.442    -300.791
  H     -176.461     429.708    -292.715
  P     -180.588     430.554    -291.980
  C     -179.583     428.176    -291.919
  O     -180.630     429.011    -292.410
  O     -181.710     431.398    -292.489
  O     -180.532     430.471    -290.374
  H     -180.572     431.373    -289.971
  H     -179.726     427.177    -292.276
  H     -179.597     428.178    -290.849
  H     -178.640     428.546    -292.264

 6  7  8  9  10  11  12  13  14  15  16  26  30  31  32  33  35 0
 6-311+G(2d,p)
 ****
 37  38 0
 6-311+G(2d,p)
 ****
 1  2  3  4  5  17  18  19  20  21  22  23  24  25 0
 3-21G
 ****
 27  28  29  34  36  39  40  41  42  43  44  45  46 0
 3-21G
 ****


