%nproc=1
%NoSave
%Mem=1900MB
#P OB98/GEN NMR

erre ene a

0 1
  C     -188.715    -739.947     860.808
  O     -188.428    -741.266     860.412
  H     -189.655    -739.951     861.376
  H     -188.835    -739.287     859.947
  H     -187.920    -739.565     861.469
  P     -187.238    -741.497     859.354
  C     -188.473    -740.092     857.569
  O     -187.925    -741.361     857.906
  C     -188.472    -739.872     856.052
  O     -187.132    -739.644     855.581
  C     -188.977    -741.078     855.261
  O     -190.343    -741.335     855.416
  C     -188.393    -740.815     853.873
  O     -189.215    -739.979     853.075
  C     -187.076    -740.084     854.207
  N     -185.902    -740.916     853.948
  C     -185.094    -740.494     852.897
  O     -185.326    -739.507     852.202
  N     -183.996    -741.284     852.639
  C     -183.682    -742.439     853.273
  O     -182.712    -743.120     852.964
  C     -184.605    -742.856     854.361
  C     -185.655    -742.078     854.639
  O     -186.438    -742.752     859.534
  O     -186.365    -740.159     859.467
  H     -188.674    -739.718     852.296
  H     -185.478    -740.277     859.076
  H     -183.391    -740.981     851.904
  H     -184.384    -743.775     854.891
  H     -186.354    -742.356     855.434
  H     -186.990    -739.165     853.606
  H     -188.250    -741.750     853.321
  H     -188.447    -741.971     855.647
  H     -189.077    -738.989     855.824
  H     -187.853    -739.332     858.047
  H     -189.497    -740.020     857.969
  P     -190.917    -742.664     856.079
  C     -190.695    -744.263     854.041
  O     -191.584    -743.583     854.916
  O     -191.672    -742.503     857.376
  O     -189.563    -743.471     856.409
  H     -189.701    -743.971     857.239
  H     -191.259    -744.828     853.328
  H     -190.073    -744.924     854.608
  H     -190.084    -743.550     853.528

 6  7  8  9  10  11  12  13  14  15  16  26  31  32  33  34  35 0
 6-311+G(2d,p)
 ****
 36  37 0
 6-311+G(2d,p)
 ****
 1  2  3  4  5  17  18  19  20  21  22  23  24  25 0
 3-21G
 ****
 27  28  29  30  38  39  40  41  42  43  44  45 0
 3-21G
 ****


