%nproc=1
%NoSave
%Mem=1900MB
#P OB98/GEN NMR

erre ene a

0 1
  C       28.732    -783.942       1.257
  O       28.893    -785.321       1.622
  P       29.214    -785.614       3.168
  C       27.981    -787.905       3.163
  O       29.209    -787.201       3.368
  C       28.175    -789.425       3.197
  O       28.672    -789.872       1.903
  C       29.175    -789.934       4.252
  O       28.690    -791.159       4.785
  C       30.431    -790.235       3.438
  O       31.279    -791.174       4.095
  C       29.783    -790.740       2.150
  N       33.516    -793.193      -0.262
  C       32.740    -793.591       0.809
  N       33.020    -794.814       1.344
  N       31.782    -792.877       1.329
  C       31.602    -791.679       0.692
  C       32.307    -791.168      -0.376
  C       33.379    -791.970      -0.918
  O       34.134    -791.655      -1.823
  N       31.827    -789.944      -0.746
  C       30.846    -789.695       0.111
  N       30.689    -790.715       1.008
  O       27.883    -785.117       3.907
  O       30.431    -784.899       3.689
  H       32.084    -791.231       3.548
  H       28.110    -784.448       4.593
  H       34.256    -793.788      -0.606
  H       30.253    -788.784       0.135
  H       29.417    -791.766       2.266
  H       30.974    -789.303       3.283
  H       33.695    -795.452       0.943
  H       29.359    -789.224       5.068
  H       32.426    -795.148       2.094
  H       27.186    -789.885       3.351
  H       27.574    -787.617       2.187
  H       27.268    -787.595       3.934
  P       28.953    -791.414       6.364
  C       26.504    -792.199       6.906
  O       27.890    -792.554       6.781
  O       28.368    -790.094       7.044
  O       30.364    -791.674       6.710
  H       28.813    -789.912       7.888
  H       26.291    -791.210       6.490
  H       26.241    -792.212       7.979
  H       25.913    -792.950       6.385
  H       28.523    -783.872       0.210
  H       29.632    -783.407       1.477
  H       27.921    -783.519       1.812

 3  4  5  6  7  8  9  10  11  12  23  26  30  31  33  0
 6-311+G(2d,p)
 ****
 35  36  37  38 0
 6-311+G(2d,p)
 ****
 1  2  13  14  15  16  17  18  19  20  21  22  24  25  27  28  29 0
 3-21G
 ****
 32  34  39  40  41  42  43  44  45  46  47  48  49 0
 3-21G
 ****


