%nproc=1
%NoSave
%Mem=1900MB
#P OB98/GEN NMR

erre ene a

0 1
  C      -19.814     -36.754    -259.173
  O      -20.500     -36.007    -258.191
  H      -20.493     -37.506    -259.580
  H      -18.958     -37.266    -258.725
  H      -19.475     -36.111    -259.988
  P      -19.794     -34.705    -257.576
  C      -20.745     -32.998    -259.259
  O      -19.587     -33.675    -258.786
  C      -20.441     -31.513    -259.434
  O      -20.109     -30.918    -258.161
  C      -19.256     -31.224    -260.347
  O      -19.608     -31.395    -261.706
  C      -18.931     -29.794    -259.944
  O      -19.819     -28.867    -260.588
  C      -19.187     -29.836    -258.419
  N      -17.962     -29.993    -257.634
  C      -17.047     -28.949    -257.698
  O      -17.214     -27.954    -258.400
  N      -15.915     -29.096    -256.938
  C      -15.587     -30.200    -256.204
  O      -14.533     -30.304    -255.581
  C      -16.575     -31.287    -256.202
  C      -17.699     -31.136    -256.902
  O      -18.577     -34.957    -256.749
  O      -20.958     -34.019    -256.717
  H      -19.689     -28.979    -261.550
  H      -20.840     -34.232    -255.773
  H      -15.237     -28.355    -256.982
  H      -16.342     -32.179    -255.634
  H      -18.439     -31.930    -256.918
  H      -19.685     -28.914    -258.092
  H      -17.917     -29.498    -260.220
  H      -18.405     -31.865    -260.080
  H      -21.348     -31.019    -259.807
  H      -21.548     -33.123    -258.524
  H      -21.054     -33.445    -260.207
  P      -18.494     -31.355    -262.852
  C      -19.168     -33.583    -263.923
  O      -18.141     -32.875    -263.240
  O      -17.310     -30.497    -262.558
  O      -19.283     -30.828    -264.141
  H      -19.036     -29.901    -264.324
  H      -18.836     -34.578    -264.134
  H      -19.398     -33.082    -264.840
  H      -20.043     -33.622    -263.309

 6  7  8  9  10  11  12  13  14  15  16  26  31  32  33  34  35 0
 6-311+G(2d,p)
 ****
 36  37 0
 6-311+G(2d,p)
 ****
 1  2  3  4  5  17  18  19  20  21  22  23  24  25 0
 3-21G
 ****
 27  28  29  30  38  39  40  41  42  43  44  45 0
 3-21G
 ****


