%nproc=1
%NoSave
%Mem=1900MB
#P OB98/GEN NMR

erre ene a

0 1
  C     -315.379      85.999    -343.757
  O     -315.665      87.136    -342.969
  H     -316.320      85.595    -344.146
  H     -314.890      85.228    -343.152
  H     -314.734      86.274    -344.596
  P     -314.415      87.814    -342.215
  C     -312.698      86.646    -340.633
  O     -314.047      86.746    -341.069
  C     -312.457      85.269    -340.013
  O     -312.565      84.236    -341.019
  C     -311.075      85.095    -339.398
  O     -310.959      85.698    -338.117
  C     -310.999      83.580    -339.319
  O     -311.803      83.114    -338.217
  C     -311.624      83.180    -340.675
  N     -310.628      83.009    -341.739
  C     -310.487      81.722    -342.261
  O     -311.162      80.790    -341.831
  N     -309.552      81.504    -343.253
  C     -308.828      82.495    -343.682
  N     -307.909      82.223    -344.652
  C     -308.957      83.872    -343.171
  C     -309.861      84.053    -342.210
  O     -315.079      89.006    -341.381
  O     -313.272      88.226    -343.084
  H     -311.700      82.147    -338.184
  H     -314.404      89.411    -340.784
  H     -308.328      84.659    -343.555
  H     -310.015      85.041    -341.787
  H     -312.201      82.252    -340.585
  H     -309.983      83.207    -339.159
  H     -310.281      85.454    -340.069
  H     -313.255      85.087    -339.275
  H     -307.798      81.261    -344.934
  H     -312.512      87.432    -339.891
  H     -307.185      82.883    -344.917
  H     -312.016      86.789    -341.478
  P     -309.543      86.338    -337.717
  C     -307.098      85.474    -337.504
  O     -308.446      85.171    -337.842
  O     -309.676      86.549    -336.138
  O     -309.198      87.610    -338.431
  H     -309.250      87.383    -335.858
  H     -306.492      84.602    -337.637
  H     -307.049      85.790    -336.483
  H     -306.739      86.258    -338.137

 6  7  8  9  10  11  12  13  14  15  16  26  30  31  32  33  35 0
 6-311+G(2d,p)
 ****
 37  38 0
 6-311+G(2d,p)
 ****
 1  2  3  4  5  17  18  19  20  21  22  23  24  25 0
 3-21G
 ****
 27  28  29  34  36  39  40  41  42  43  44  45  46 0
 3-21G
 ****


