%nproc=1
%NoSave
%Mem=1900MB
#P OB98/GEN NMR

erre ene a

0 1
  C       36.450       2.417      63.309
  O       35.133       2.401      63.822
  P       34.457       1.042      64.325
  C       33.258       0.354      62.168
  O       33.101       0.824      63.499
  C       31.922       0.317      61.429
  O       32.160       0.110      60.012
  C       30.968      -0.786      61.910
  O       29.643      -0.245      61.877
  C       31.132      -1.864      60.856
  O       30.019      -2.745      60.805
  C       31.347      -1.008      59.604
  N       31.972      -1.753      58.521
  C       31.177      -2.038      57.410
  O       29.972      -1.781      57.428
  N       31.767      -2.621      56.316
  C       32.987      -3.051      56.401
  N       33.555      -3.561      55.274
  C       33.774      -2.989      57.649
  C       33.230      -2.295      58.645
  O       34.306       0.921      65.806
  O       35.415      -0.110      63.754
  H       35.683      -0.696      64.488
  H       30.084      -3.290      59.993
  H       34.738      -3.473      57.709
  H       33.741      -2.169      59.592
  H       30.393      -0.600      59.247
  H       32.027      -2.459      61.073
  H       31.194      -1.128      62.924
  H       31.445       1.299      61.537
  H       32.999      -3.550      54.428
  H       33.669      -0.658      62.211
  H       34.566      -3.620      55.157
  H       33.978       0.984      61.633
  P       28.898       0.034      63.272
  C       27.003      -1.602      62.593
  O       27.348      -0.324      63.083
  O       28.868       1.641      63.305
  O       29.570      -0.485      64.502
  H       28.815       1.938      64.232
  H       25.918      -1.646      62.466
  H       27.301      -2.376      63.306
  H       27.478      -1.787      61.626
  H       36.712       3.416      63.030
  H       36.506       1.781      62.450
  H       37.129       2.066      64.058

 3  4  5  6  7  8  9  10  11  12  13  24  27  28  29  30  32 0
 6-311+G(2d,p)
 ****
 34  35 0
 6-311+G(2d,p)
 ****
 1  2  14  15  16  17  18  19  20  21  22  23  25  26 0
 3-21G
 ****
 31  33  36  37  38  39  40  41  42  43  44  45  46 0
 3-21G
 ****


