%nproc=1
%NoSave
%Mem=1900MB
#P OB98/GEN NMR

erre ene a

0 1
  C       -0.093      75.692    -263.614
  O        1.247      76.113    -263.811
  P        2.245      76.035    -262.555
  C        1.628      78.395    -261.651
  O        1.626      76.991    -261.426
  C        1.031      79.122    -260.450
  O       -0.328      78.698    -260.219
  C        1.759      78.862    -259.138
  O        2.923      79.662    -258.999
  C        0.703      79.282    -258.129
  O        0.693      80.717    -257.996
  C       -0.590      78.798    -258.797
  N       -2.395      76.348    -254.757
  C       -2.238      77.703    -254.970
  N       -2.552      78.514    -253.938
  N       -1.815      78.218    -256.094
  C       -1.531      77.284    -257.036
  C       -1.649      75.915    -256.943
  C       -2.107      75.359    -255.688
  O       -2.216      74.168    -255.421
  N       -1.276      75.301    -258.108
  C       -0.934      76.292    -258.908
  N       -1.031      77.511    -258.290
  O        3.531      76.843    -263.055
  O        2.584      74.651    -262.115
  H        0.023      80.929    -257.316
  H        4.299      76.633    -262.489
  H       -2.720      76.000    -253.869
  H       -0.598      76.173    -259.930
  H       -1.409      79.511    -258.666
  H        0.881      78.872    -257.131
  H       -2.823      78.177    -253.025
  H        1.982      77.795    -259.010
  H       -2.386      79.508    -254.044
  H        1.016      80.197    -260.677
  H        1.039      78.617    -262.544
  H        2.655      78.730    -261.824
  P        4.125      79.043    -258.131
  C        3.893      80.985    -256.423
  O        3.898      79.588    -256.642
  O        5.400      79.857    -258.651
  O        4.294      77.567    -258.275
  H        6.211      79.330    -258.530
  H        3.468      81.182    -255.433
  H        3.285      81.499    -257.172
  H        4.915      81.369    -256.449
  H       -0.638      75.798    -264.528
  H       -0.548      76.294    -262.855
  H       -0.104      74.666    -263.310

 3  4  5  6  7  8  9  10  11  12  23  26  30  31 0
 6-311+G(2d,p)
 ****
 33  35  36  37  38 0
 6-311+G(2d,p)
 ****
 1  2  13  14  15  16  17  18  19  20  21  22  24  25 0
 3-21G
 ****
 27  28  29  32  34  39  40  41  42  43  44  45  46  47  48  49 0
 3-21G
 ****


