%nproc=1
%NoSave
%Mem=1900MB
#P OB98/GEN NMR

erre ene a

0 1
  C      -25.994     343.525    -315.103
  O      -26.976     344.360    -314.471
  P      -26.676     344.814    -312.955
  C      -27.826     347.119    -313.221
  O      -27.794     345.884    -312.519
  C      -29.236     347.733    -313.186
  O      -30.065     347.186    -314.255
  C      -29.985     347.504    -311.870
  O      -30.801     348.654    -311.623
  C      -30.879     346.325    -312.194
  O      -31.963     346.220    -311.281
  C      -31.260     346.656    -313.635
  N      -35.204     343.467    -314.235
  C      -35.021     344.540    -313.437
  N      -33.929     345.329    -313.322
  C      -32.969     344.931    -314.181
  C      -33.009     343.852    -315.047
  C      -34.192     343.084    -315.057
  N      -34.367     341.982    -315.847
  N      -31.806     343.731    -315.729
  C      -31.065     344.723    -315.275
  N      -31.735     345.492    -314.363
  O      -25.341     345.683    -313.094
  O      -26.485     343.669    -312.014
  H      -32.329     347.116    -311.116
  H      -24.582     345.200    -312.725
  H      -35.870     344.799    -312.801
  H      -30.044     344.923    -315.570
  H      -32.050     347.416    -313.692
  H      -30.297     345.387    -312.146
  H      -29.329     347.309    -311.011
  H      -29.134     348.820    -313.370
  H      -27.530     346.961    -314.271
  H      -35.239     341.473    -315.777
  H      -33.602     341.664    -316.427
  H      -27.083     347.800    -312.800
  P      -30.192     349.761    -310.630
  C      -30.327     351.702    -312.348
  O      -30.784     351.168    -311.122
  O      -28.647     349.831    -311.040
  O      -30.382     349.447    -309.180
  H      -28.113     350.138    -310.283
  H      -31.173     352.142    -312.878
  H      -29.868     350.935    -312.991
  H      -29.585     352.479    -312.143
  H      -26.309     343.295    -316.099
  H      -25.885     342.618    -314.546
  H      -25.056     344.039    -315.135

 3  4  5  6  7  8  9  10  11  12  22  25  29  30  31  32 0
 6-311+G(2d,p)
 ****
 33  36  37 0
 6-311+G(2d,p)
 ****
 1  2  13  14  15  16  17  18  19  20  21  23  24  26 0
 3-21G
 ****
 27  28  34  35  38  39  40  41  42  43  44  45  46  47  48 0
 3-21G
 ****


