%nproc=1
%NoSave
%Mem=1900MB
#P OB98/GEN NMR

erre ene a

0 1
  C     -296.108      14.375     105.946
  O     -296.773      13.597     106.920
  H     -295.873      13.739     105.088
  H     -295.177      14.778     106.352
  H     -296.754      15.192     105.614
  P     -297.107      14.325     108.312
  C     -295.677      12.788     109.862
  O     -295.801      14.042     109.207
  C     -294.360      12.729     110.628
  O     -293.240      12.895     109.730
  C     -294.192      13.819     111.684
  O     -294.917      13.565     112.874
  C     -292.692      13.735     111.908
  O     -292.385      12.565     112.690
  C     -292.188      13.587     110.457
  N     -291.886      14.874     109.821
  C     -290.874      14.872     108.853
  O     -290.279      13.836     108.568
  N     -290.534      16.060     108.253
  C     -291.159      17.151     108.571
  N     -290.776      18.296     107.946
  C     -292.239      17.196     109.574
  C     -292.547      16.037     110.151
  O     -298.201      13.367     108.979
  O     -297.509      15.758     108.222
  H     -292.760      11.804     112.209
  H     -298.370      13.647     109.912
  H     -292.724      18.130     109.816
  H     -293.332      15.991     110.898
  H     -291.291      12.958     110.413
  H     -292.287      14.592     112.446
  H     -294.434      14.809     111.283
  H     -294.277      11.730     111.074
  H     -289.993      18.244     107.307
  H     -295.706      12.000     109.103
  H     -291.095      19.213     108.231
  H     -296.508      12.645     110.558
  P     -295.152      14.803     113.871
  C     -293.991      13.995     116.058
  O     -293.921      14.815     114.897
  O     -296.381      14.317     114.773
  O     -295.433      16.109     113.196
  H     -296.951      15.070     115.019
  H     -293.098      14.116     116.635
  H     -294.090      12.971     115.766
  H     -294.837      14.282     116.647

 6  7  8  9  10  11  12  13  14  15  16  26  30  31  32  33  35 0
 6-311+G(2d,p)
 ****
 37  38 0
 6-311+G(2d,p)
 ****
 1  2  3  4  5  17  18  19  20  21  22  23  24  25 0
 3-21G
 ****
 27  28  29  34  36  39  40  41  42  43  44  45  46 0
 3-21G
 ****


