%nproc=1
%NoSave
%Mem=1900MB
#P OB98/GEN NMR

erre ene a

0 1
  C       -3.562    -204.781     277.559
  O       -2.188    -204.430     277.526
  H       -3.772    -205.267     278.513
  H       -3.786    -205.480     276.749
  H       -4.184    -203.890     277.466
  P       -1.680    -203.687     276.197
  C       -1.187    -206.011     275.129
  O       -1.828    -204.752     275.004
  C       -0.688    -206.496     273.752
  O        0.105    -205.422     273.144
  C        0.221    -207.739     273.818
  O        0.056    -208.464     272.590
  C        1.605    -207.105     273.871
  O        2.607    -208.068     273.611
  C        1.403    -205.989     272.857
  N        6.213    -204.734     271.618
  C        5.466    -205.830     271.345
  N        4.185    -206.088     271.691
  C        3.674    -205.057     272.389
  C        4.306    -203.870     272.740
  C        5.651    -203.729     272.328
  N        6.405    -202.617     272.614
  N        3.447    -203.058     273.466
  C        2.324    -203.737     273.551
  N        2.411    -204.948     272.919
  O       -0.096    -203.577     276.418
  O       -2.292    -202.351     275.933
  H        3.492    -207.646     273.615
  H        0.128    -202.704     276.798
  H        5.969    -206.612     270.759
  H        1.423    -203.406     274.044
  H        1.381    -206.362     271.825
  H        1.809    -206.701     274.863
  H       -0.009    -208.397     274.661
  H       -1.551    -206.660     273.101
  H       -1.909    -206.733     275.534
  H       -0.327    -205.931     275.813
  H        7.362    -202.603     272.298
  H        5.999    -201.868     273.160
  P       -0.789    -209.829     272.580
  C        1.343    -211.299     272.940
  O        0.033    -210.952     273.379
  O       -0.637    -210.316     271.062
  O       -2.238    -209.699     272.952
  H       -1.407    -210.844     270.814
  H        1.744    -212.057     273.579
  H        1.972    -210.434     272.975
  H        1.297    -211.666     271.936

 6  7  8  9  10  11  12  13  14  15  25  28  32  33  34  35 0
 6-311+G(2d,p)
 ****
 36  37  40 0
 6-311+G(2d,p)
 ****
 1  2  3  4  5  16  17  18  19  20  21  22  23  24 0
 3-21G
 ****
 26  27  29  30  31  38  39 41  42  43  44  45  46  47  48 0
 3-21G
 ****


