%nproc=1
%NoSave
%Mem=1900MB
#P OB98/GEN NMR

erre ene a

0 1
  C     -300.640    -148.965    -255.741
  O     -299.423    -149.234    -256.412
  P     -298.165    -149.701    -255.527
  C     -296.768    -147.556    -256.002
  O     -297.426    -148.362    -255.040
  C     -295.473    -146.973    -255.421
  O     -295.816    -145.871    -254.539
  C     -294.635    -147.965    -254.596
  O     -293.261    -147.601    -254.777
  C     -295.059    -147.668    -253.167
  O     -294.100    -148.102    -252.208
  C     -295.251    -146.159    -253.243
  N     -295.707    -143.069    -249.251
  C     -294.590    -143.376    -250.017
  N     -293.457    -142.715    -249.705
  N     -294.592    -144.240    -250.996
  C     -295.808    -144.812    -251.200
  C     -296.967    -144.623    -250.487
  C     -296.960    -143.636    -249.431
  O     -297.947    -143.272    -248.786
  N     -297.971    -145.448    -250.928
  C     -297.436    -146.072    -251.965
  N     -296.139    -145.684    -252.191
  O     -297.166    -150.312    -256.624
  O     -298.472    -150.670    -254.424
  H     -293.241    -147.706    -252.445
  H     -297.285    -151.279    -256.704
  H     -295.648    -142.375    -248.528
  H     -297.936    -146.805    -252.583
  H     -294.306    -145.605    -253.146
  H     -296.006    -148.181    -252.955
  H     -293.387    -142.008    -248.985
  H     -294.796    -149.011    -254.880
  H     -292.633    -142.896    -250.273
  H     -294.878    -146.562    -256.245
  H     -297.426    -146.728    -256.280
  H     -296.554    -148.146    -256.902
  P     -292.193    -148.782    -254.970
  C     -291.235    -148.578    -252.570
  O     -291.879    -149.399    -253.529
  O     -290.844    -147.982    -255.330
  O     -292.527    -149.761    -256.045
  H     -290.299    -148.522    -255.930
  H     -291.449    -148.971    -251.572
  H     -291.579    -147.547    -252.629
  H     -290.157    -148.610    -252.737
  H     -301.381    -148.667    -256.453
  H     -300.490    -148.178    -255.032
  H     -300.969    -149.847    -255.231

 3  4  5  6  7  8  9  10  11  12  23  26  30  31 0
 6-311+G(2d,p)
 ****
 33  35  36  37  38 0
 6-311+G(2d,p)
 ****
 1  2  13  14  15  16  17  18  19  20  21  22  24  25 0
 3-21G
 ****
 27  28  29  32  34  39  40  41  42  43  44  45  46  47  48  49 0
 3-21G
 ****


