%nproc=1
%NoSave
%Mem=1900MB
#P OB98/GEN NMR

erre ene a

0 1
  C     -713.452    1050.343    -303.828
  O     -713.475    1049.879    -302.489
  P     -714.869    1049.794    -301.692
  C     -714.965    1047.199    -301.509
  O     -715.529    1048.374    -302.052
  C     -716.055    1046.270    -300.976
  O     -716.662    1046.899    -299.810
  C     -717.212    1046.005    -301.941
  O     -717.899    1044.823    -301.514
  C     -718.082    1047.227    -301.730
  O     -719.419    1047.011    -302.170
  C     -717.918    1047.487    -300.202
  N     -717.915    1048.926    -299.922
  C     -718.390    1049.331    -298.682
  O     -718.740    1048.529    -297.804
  N     -718.534    1050.681    -298.492
  C     -718.299    1051.635    -299.436
  O     -718.714    1052.785    -299.380
  C     -717.580    1051.170    -300.633
  C     -717.439    1049.862    -300.832
  O     -715.782    1050.848    -302.482
  O     -714.779    1050.111    -300.243
  H     -719.357    1046.687    -303.106
  H     -715.775    1051.707    -302.023
  H     -719.021    1050.963    -297.651
  H     -717.237    1051.920    -301.340
  H     -716.964    1049.489    -301.730
  H     -718.727    1047.023    -299.629
  H     -717.668    1048.056    -302.308
  H     -716.897    1045.890    -302.987
  H     -715.599    1045.322    -300.654
  H     -714.262    1047.470    -300.712
  H     -714.387    1046.668    -302.274
  P     -718.580    1043.898    -302.631
  C     -716.861    1041.999    -302.512
  O     -717.395    1043.052    -303.295
  O     -719.500    1044.594    -303.596
  O     -719.356    1042.798    -301.763
  H     -720.041    1042.365    -302.308
  H     -716.488    1041.214    -303.197
  H     -717.616    1041.561    -301.859
  H     -716.029    1042.376    -301.910
  H     -712.446    1050.331    -304.192
  H     -713.833    1051.342    -303.866
  H     -714.060    1049.706    -304.437

 3  4  5  6  7  8  9  10  11  12  13  23  28  29  30  31  32 0
 6-311+G(2d,p)
 ****
 33  34 0
 6-311+G(2d,p)
 ****
 1  2  14  15  16  17  18  19  20  21  22  24  25  26  27 0
 3-21G
 ****
 35  36  37  38  39  40  41  42  43  44  45 0
 3-21G
 ****


