%nproc=1
%NoSave
%Mem=1900MB
#P OB98/GEN NMR

erre ene a

0 1
  C     -433.181    -313.492      30.925
  O     -434.051    -313.338      32.057
  P     -434.231    -314.635      32.995
  C     -436.031    -316.486      33.333
  O     -435.607    -315.362      32.571
  C     -437.494    -316.846      33.060
  O     -438.349    -315.940      33.798
  C     -437.917    -316.769      31.593
  O     -438.844    -317.828      31.316
  C     -438.678    -315.461      31.517
  O     -439.586    -315.425      30.414
  C     -439.349    -315.453      32.891
  N     -443.422    -312.505      33.545
  C     -443.344    -313.857      33.239
  N     -444.515    -314.503      33.062
  N     -442.215    -314.508      33.120
  C     -441.121    -313.739      33.359
  C     -441.062    -312.408      33.679
  C     -442.321    -311.684      33.766
  O     -442.453    -310.480      33.981
  N     -439.767    -311.980      33.847
  C     -439.035    -313.058      33.617
  N     -439.816    -314.152      33.311
  O     -434.549    -314.001      34.433
  O     -433.027    -315.519      33.037
  H     -440.352    -315.982      30.653
  H     -433.911    -314.328      35.080
  H     -444.309    -312.047      33.603
  H     -437.957    -313.100      33.635
  H     -440.199    -316.147      32.920
  H     -437.974    -314.626      31.405
  H     -445.419    -314.068      33.199
  H     -437.084    -316.808      30.871
  H     -444.486    -315.501      32.875
  H     -437.674    -317.857      33.456
  H     -435.895    -316.273      34.398
  H     -435.378    -317.336      33.088
  P     -438.769    -318.486      29.852
  C     -439.718    -317.776      27.536
  O     -439.785    -317.642      28.944
  O     -439.509    -319.891      30.040
  O     -437.378    -318.637      29.318
  H     -439.186    -320.536      29.387
  H     -439.093    -318.610      27.227
  H     -439.319    -316.845      27.112
  H     -440.732    -317.917      27.151
  H     -433.139    -312.572      30.380
  H     -433.556    -314.267      30.290
  H     -432.199    -313.752      31.262

 3  4  5  6  7  8  9  10  11  12  23  26  30  31  33  0
 6-311+G(2d,p)
 ****
 35  36  37  38 0
 6-311+G(2d,p)
 ****
 1  2  13  14  15  16  17  18  19  20  21  22  24  25  27  28  29 0
 3-21G
 ****
 32  34  39  40  41  42  43  44  45  46  47  48  49 0
 3-21G
 ****


