%nproc=1
%NoSave
%Mem=1900MB
#P OB98/GEN NMR

erre ene a

0 1
  C      -40.167      37.369    -123.246
  O      -39.884      37.075    -124.605
  P      -40.963      36.215    -125.423
  C      -39.760      33.972    -124.961
  O      -40.944      34.739    -124.790
  C      -40.083      32.486    -125.046
  O      -40.880      32.111    -123.889
  C      -40.873      32.081    -126.301
  O      -40.326      30.866    -126.832
  C      -42.257      31.765    -125.762
  O      -42.960      30.851    -126.597
  C      -41.899      31.218    -124.381
  N      -44.634      28.092    -121.510
  C      -43.418      27.884    -122.129
  N      -42.886      26.647    -122.010
  N      -42.781      28.802    -122.806
  C      -43.416      29.999    -122.815
  C      -44.618      30.331    -122.233
  C      -45.339      29.287    -121.537
  O      -46.462      29.383    -121.045
  N      -44.927      31.650    -122.445
  C      -43.919      32.116    -123.157
  N      -43.000      31.139    -123.448
  O      -40.260      36.027    -126.849
  O      -42.307      36.843    -125.561
  H      -42.527      29.983    -126.499
  H      -40.849      36.361    -127.553
  H      -45.090      27.345    -121.015
  H      -43.828      33.135    -123.508
  H      -41.462      30.215    -124.467
  H      -42.837      32.692    -125.693
  H      -43.305      25.905    -121.474
  H      -40.898      32.847    -127.082
  H      -41.983      26.482    -122.438
  H      -39.145      31.920    -124.982
  H      -39.092      34.147    -124.111
  H      -39.256      34.300    -125.877
  P      -39.642      30.978    -128.282
  C      -41.932      30.424    -129.391
  O      -40.832      31.308    -129.300
  O      -39.254      29.465    -128.625
  O      -38.466      31.896    -128.327
  H      -38.516      29.439    -129.263
  H      -41.916      29.662    -128.606
  H      -41.910      29.927    -130.364
  H      -42.858      30.998    -129.305
  H      -39.366      37.944    -122.831
  H      -40.272      36.456    -122.698
  H      -41.077      37.929    -123.184

 3  4  5  6  7  8  9  10  11  12  23  26  30  31  33  0
 6-311+G(2d,p)
 ****
 35  36  37  38 0
 6-311+G(2d,p)
 ****
 1  2  13  14  15  16  17  18  19  20  21  22  24  25  27  28  29 0
 3-21G
 ****
 32  34  39  40  41  42  43  44  45  46  47  48  49 0
 3-21G
 ****


