%nproc=1
%NoSave
%Mem=1900MB
#P OB98/GEN NMR

erre ene a

0 1
  C      -53.223     -92.057      -9.922
  O      -54.471     -91.918     -10.606
  P      -54.749     -90.509     -11.320
  C      -57.272     -90.816     -11.854
  O      -55.949     -90.706     -12.364
  C      -58.151     -91.587     -12.838
  O      -58.075     -93.012     -12.620
  C      -59.631     -91.242     -12.725
  O      -59.906     -89.979     -13.307
  C      -60.257     -92.426     -13.454
  O      -60.172     -92.243     -14.878
  C      -59.342     -93.585     -13.027
  N      -61.763     -97.923     -11.806
  C      -61.358     -97.418     -12.992
  N      -60.721     -96.253     -13.234
  C      -60.495     -95.589     -12.089
  C      -60.845     -95.980     -10.807
  C      -61.515     -97.209     -10.684
  N      -61.940     -97.716      -9.477
  N      -60.449     -95.033      -9.884
  C      -59.891     -94.078     -10.599
  N      -59.885     -94.373     -11.936
  O      -53.464     -90.307     -12.251
  O      -54.920     -89.377     -10.362
  H      -60.658     -92.982     -15.296
  H      -52.895     -89.604     -11.886
  H      -61.577     -98.029     -13.863
  H      -59.481     -93.159     -10.198
  H      -59.136     -94.277     -13.851
  H      -61.311     -92.574     -13.206
  H      -59.940     -91.243     -11.673
  H      -57.796     -91.370     -13.855
  H      -57.694     -89.823     -11.680
  H      -62.481     -98.566      -9.485
  H      -61.838     -97.152      -8.646
  H      -57.234     -91.316     -10.881
  P      -60.598     -88.867     -12.382
  C      -61.938     -87.972     -14.383
  O      -60.949     -87.683     -13.412
  O      -59.343     -88.280     -11.588
  O      -61.731     -89.357     -11.547
  H      -58.588     -88.111     -12.180
  H      -62.102     -87.078     -14.990
  H      -62.876     -88.250     -13.897
  H      -61.598     -88.783     -15.032
  H      -53.159     -93.035      -9.492
  H      -53.157     -91.321      -9.148
  H      -52.419     -91.919     -10.615

 3  4  5  6  7  8  9  10  11  12  22  25  29  30  31  32 0
 6-311+G(2d,p)
 ****
 33  36  37 0
 6-311+G(2d,p)
 ****
 1  2  13  14  15  16  17  18  19  20  21  23  24  26 0
 3-21G
 ****
 27  28  34  35  38  39  40  41  42  43  44  45  46  47  48 0
 3-21G
 ****


