%nproc=1
%NoSave
%Mem=1900MB
#P OB98/GEN NMR

erre ene a

0 1
  C       16.533    -520.594    -899.333
  O       16.019    -520.157    -898.093
  P       17.089    -519.785    -896.943
  C       17.563    -522.172    -896.033
  O       16.927    -520.911    -895.813
  C       17.463    -523.032    -894.763
  O       18.071    -522.336    -893.653
  C       16.027    -523.327    -894.333
  O       15.474    -524.353    -895.133
  C       16.250    -523.717    -892.873
  O       16.562    -525.117    -892.753
  C       17.446    -522.853    -892.453
  N       17.076    -521.778    -891.553
  C       16.821    -522.166    -890.213
  O       16.899    -523.344    -889.883
  N       16.451    -521.190    -889.313
  C       16.346    -519.959    -889.703
  N       15.965    -519.050    -888.773
  C       16.578    -519.524    -891.093
  C       16.941    -520.483    -891.953
  O       16.450    -518.478    -896.273
  O       18.474    -519.550    -897.453
  H       17.492    -525.221    -893.063
  H       17.139    -517.916    -895.873
  H       16.463    -518.484    -891.373
  H       17.140    -520.242    -893.003
  H       18.221    -523.464    -891.953
  H       15.352    -523.564    -892.273
  H       15.416    -522.409    -894.373
  H       18.019    -523.957    -894.943
  H       15.800    -519.375    -887.833
  H       18.626    -522.011    -896.253
  H       15.879    -518.056    -888.973
  H       17.092    -522.665    -896.873
  P       14.293    -523.941    -896.123
  C       12.869    -523.472    -894.013
  O       12.946    -524.152    -895.253
  O       14.238    -525.186    -897.133
  O       14.412    -522.629    -896.843
  H       13.609    -525.014    -897.853
  H       11.844    -523.576    -893.633
  H       13.067    -522.407    -894.173
  H       13.596    -523.901    -893.323
  H       15.724    -520.806    -900.000
  H       17.115    -521.480    -899.186
  H       17.150    -519.828    -899.753

 3  4  5  6  7  8  9  10  11  12  13  21  23  27  28  29  30  32 0
 6-311+G(2d,p)
 ****
 34  35 0
 6-311+G(2d,p)
 ****
 1  2  14  15  16  17  18  19  20  22  24  25  26 0
 3-21G
 ****
 31  33  36  37  38  39  40  41  42  43  44  45  46 0
 3-21G
 ****


