%nproc=1
%NoSave
%Mem=1900MB
#P OB98/GEN NMR

erre ene a

0 1
  C      288.400    -336.916     -24.578
  O      287.961    -338.230     -24.884
  P      286.659    -338.777     -24.120
  C      284.168    -338.088     -23.996
  O      285.480    -337.725     -24.411
  C      283.390    -336.866     -23.522
  O      283.953    -336.416     -22.257
  C      283.433    -335.673     -24.489
  O      282.120    -335.096     -24.584
  C      284.324    -334.669     -23.783
  O      284.046    -333.330     -24.185
  C      283.986    -334.977     -22.325
  N      285.306    -330.838     -19.752
  C      284.155    -331.107     -20.457
  N      283.246    -330.108     -20.525
  N      283.908    -332.251     -21.037
  C      284.887    -333.167     -20.857
  C      286.072    -333.022     -20.173
  C      286.359    -331.732     -19.584
  O      287.404    -331.405     -19.024
  N      286.805    -334.186     -20.193
  C      286.069    -335.028     -20.887
  N      284.919    -334.446     -21.355
  O      287.022    -338.528     -22.579
  O      286.328    -340.211     -24.370
  H      283.085    -333.192     -24.085
  H      286.958    -339.368     -22.087
  H      285.454    -329.934     -19.335
  H      286.341    -336.053     -21.110
  H      282.989    -334.599     -22.073
  H      285.372    -334.893     -24.012
  H      283.352    -329.218     -20.072
  H      283.799    -335.918     -25.491
  H      282.378    -330.292     -21.020
  H      282.357    -337.167     -23.320
  H      284.236    -338.815     -23.182
  H      283.649    -338.556     -24.842
  P      281.625    -334.703     -26.062
  C      281.202    -336.084     -28.234
  O      281.770    -336.042     -26.936
  O      282.799    -333.767     -26.608
  O      280.291    -334.034     -26.099
  H      282.460    -333.166     -27.305
  H      280.857    -335.098     -28.564
  H      280.360    -336.774     -28.232
  H      281.964    -336.449     -28.936
  H      289.270    -336.687     -25.157
  H      288.637    -336.853     -23.537
  H      287.623    -336.217     -24.810

 3  4  5  6  7  8  9  10  11  12  23  26  30  31  33  0
 6-311+G(2d,p)
 ****
 35  36  37  38 0
 6-311+G(2d,p)
 ****
 1  2  13  14  15  16  17  18  19  20  21  22  24  25  27  28  29 0
 3-21G
 ****
 32  34  39  40  41  42  43  44  45  46  47  48  49 0
 3-21G
 ****


