%nproc=1
%NoSave
%Mem=1900MB
#P OB98/GEN NMR

erre ene a

0 1
  C      207.010    -128.685      25.148
  O      208.186    -128.996      24.437
  H      206.448    -129.609      25.315
  H      206.393    -128.004      24.554
  H      207.233    -128.229      26.115
  P      209.393    -127.944      24.456
  C      211.309    -129.678      24.392
  O      210.652    -128.615      23.712
  C      212.195    -130.491      23.454
  O      211.377    -131.343      22.624
  C      213.013    -129.609      22.505
  O      214.250    -129.166      23.036
  C      213.227    -130.537      21.310
  O      214.403    -131.340      21.475
  C      211.975    -131.415      21.316
  N      210.435    -131.826      16.452
  C      211.613    -132.269      17.030
  N      212.500    -132.854      16.196
  N      211.887    -132.121      18.302
  C      210.947    -131.430      18.986
  C      209.752    -130.927      18.517
  C      209.424    -131.156      17.129
  O      208.390    -130.803      16.576
  N      209.072    -130.242      19.499
  C      209.899    -130.256      20.529
  N      211.016    -131.037      20.294
  O      209.867    -127.940      25.988
  O      209.050    -126.556      24.002
  H      214.474    -131.936      20.699
  H      210.207    -127.056      26.225
  H      210.263    -131.993      15.477
  H      209.721    -129.768      21.484
  H      212.222    -132.473      21.139
  H      213.365    -129.961      20.389
  H      212.375    -132.912      15.196
  H      212.422    -128.750      22.169
  H      213.450    -133.016      16.541
  H      212.844    -131.151      24.042
  H      210.518    -130.310      24.810
  H      211.896    -129.289      25.229
  P      214.805    -127.694      22.731
  C      216.037    -127.244      25.007
  O      216.112    -127.458      23.610
  O      213.708    -126.755      23.427
  O      214.991    -127.364      21.287
  H      213.076    -126.420      22.763
  H      217.023    -127.108      25.400
  H      215.580    -128.092      25.474
  H      215.451    -126.370      25.203

 6  7  8  9  10  11  12  13  14  15  26  29  33  34 0
 6-311+G(2d,p)
 ****
 36  38  39  40  41 0
 6-311+G(2d,p)
 ****
 1  2  3  4  5  16  17  18  19  20  21  22  23  24  25 0
 3-21G
 ****
 27  28  30  31  32  35  37  42  43  44  45  46  47 0
 3-21G
 ****
 48  49 0
 3-21G
 ****


