%nproc=1
%NoSave
%Mem=1900MB
#P OB98/GEN NMR

erre ene a

0 1
  C     -179.390     239.065     661.649
  O     -179.731     237.940     660.867
  H     -179.401     239.953     661.010
  H     -178.384     238.943     662.061
  H     -180.108     239.207     662.460
  P     -179.974     236.563     661.656
  C     -182.544     236.584     662.035
  O     -181.455     236.077     661.276
  C     -183.815     236.594     661.191
  O     -183.711     237.576     660.136
  C     -184.126     235.266     660.510
  O     -184.786     234.363     661.385
  C     -185.057     235.733     659.401
  O     -186.367     235.995     659.944
  C     -184.391     237.043     658.962
  N     -183.785     235.852     654.071
  C     -184.933     235.887     654.842
  N     -186.084     235.543     654.224
  N     -184.954     236.219     656.109
  C     -183.728     236.528     656.598
  C     -182.521     236.533     655.935
  C     -182.515     236.172     654.536
  O     -181.533     236.148     653.802
  N     -181.499     236.908     656.760
  C     -182.077     237.112     657.927
  N     -183.429     236.886     657.884
  O     -180.125     237.032     663.184
  O     -178.901     235.542     661.506
  H     -186.923     236.302     659.205
  H     -179.726     236.354     663.760
  H     -183.825     235.579     653.105
  H     -181.568     237.424     658.827
  H     -185.121     237.796     658.637
  H     -185.181     234.990     658.614
  H     -186.129     235.231     653.266
  H     -183.227     234.821     660.066
  H     -186.941     235.591     654.759
  H     -184.647     236.899     661.839
  H     -182.315     237.607     662.354
  H     -182.682     235.957     662.919
  P     -184.690     232.794     661.048
  C     -183.098     232.213     663.017
  O     -184.395     232.070     662.448
  O     -183.295     232.680     660.272
  O     -185.826     232.249     660.250
  H     -183.291     231.879     659.709
  H     -183.054     231.678     663.943
  H     -182.898     233.249     663.194
  H     -182.367     231.819     662.342

 6  7  8  9  10  11  12  13  14  15  26  29  33  34 0
 6-311+G(2d,p)
 ****
 36  38  39  40  41 0
 6-311+G(2d,p)
 ****
 1  2  3  4  5  16  17  18  19  20  21  22  23  24  25 0
 3-21G
 ****
 27  28  30  31  32  35  37  42  43  44  45  46  47 0
 3-21G
 ****
 48  49 0
 3-21G
 ****


