%nproc=1
%NoSave
%Mem=1900MB
#P OB98/GEN NMR

erre ene a

0 1
  C      205.992       1.315     -20.874
  O      207.170       1.481     -21.642
  P      207.087       1.815     -23.205
  C      207.460      -0.637     -23.843
  O      206.595       0.486     -23.960
  C      207.925      -1.124     -25.216
  O      206.782      -1.656     -25.941
  C      208.564      -0.044     -26.100
  O      209.581      -0.689     -26.875
  C      207.416       0.369     -27.007
  O      207.857       1.003     -28.202
  C      206.738      -0.979     -27.217
  N      203.287      -2.456     -30.689
  C      204.603      -2.730     -30.558
  N      205.461      -2.277     -29.621
  C      204.832      -1.464     -28.755
  C      203.504      -1.067     -28.779
  C      202.705      -1.615     -29.799
  N      201.353      -1.379     -29.927
  N      203.247      -0.176     -27.752
  C      204.397      -0.038     -27.125
  N      205.366      -0.848     -27.656
  O      208.310       2.444     -23.788
  O      205.821       2.790     -23.325
  H      208.051       1.940     -28.000
  H      206.125       3.707     -23.479
  H      205.022      -3.405     -31.300
  H      204.585       0.625     -26.293
  H      207.268      -1.600     -27.949
  H      206.759       1.068     -26.476
  H      208.980       0.799     -25.539
  H      208.625      -1.957     -25.063
  H      206.907      -1.440     -23.344
  H      200.853      -1.926     -30.609
  H      200.848      -0.981     -29.139
  H      208.326      -0.376     -23.224
  P      210.948       0.082     -27.201
  C      210.480       0.364     -29.704
  O      210.649       1.026     -28.461
  O      212.157      -0.783     -27.322
  O      211.086       1.127     -25.992
  H      212.006       1.447     -25.940
  H      211.460       0.125     -30.124
  H      209.951       1.027     -30.390
  H      209.904      -0.557     -29.582
  H      206.255       1.099     -19.860
  H      205.417       0.506     -21.274
  H      205.414       2.215     -20.908

 3  4  5  6  7  8  9  10  11  12  22  25  29  30  31  32 0
 6-311+G(2d,p)
 ****
 33  36  37 0
 6-311+G(2d,p)
 ****
 1  2  13  14  15  16  17  18  19  20  21  23  24  26 0
 3-21G
 ****
 27  28  34  35  38  39  40  41  42  43  44  45  46  47  48 0
 3-21G
 ****


