%nproc=1
%NoSave
%Mem=1900MB
#P OB98/GEN NMR

erre ene a

0 1
  C      372.760      34.728     167.865
  O      372.353      33.897     168.934
  H      373.838      34.646     167.711
  H      372.248      34.404     166.953
  H      372.490      35.768     168.070
  P      373.020      34.183     170.364
  C      374.906      32.484     169.832
  O      374.578      33.808     170.241
  C      376.420      32.352     169.673
  O      376.831      33.139     168.524
  C      377.240      32.819     170.888
  O      378.062      31.750     171.370
  C      378.145      33.911     170.339
  O      379.470      33.865     170.866
  C      378.126      33.664     168.833
  N      380.877      35.709     165.064
  C      380.543      34.429     165.332
  N      379.720      33.959     166.289
  C      379.194      34.970     167.000
  C      379.423      36.325     166.832
  C      380.326      36.685     165.819
  N      380.707      37.991     165.579
  N      378.708      37.062     167.763
  C      378.096      36.163     168.510
  N      378.377      34.884     168.100
  O      372.426      33.017     171.288
  O      372.742      35.534     170.935
  H      379.810      32.970     170.694
  H      372.096      33.396     172.125
  H      381.007      33.676     164.694
  H      377.488      36.378     169.376
  H      378.875      32.921     168.529
  H      377.709      34.886     170.585
  H      376.610      33.199     171.701
  H      376.650      31.304     169.438
  H      374.425      32.269     168.874
  H      381.444      38.148     164.912
  H      380.383      38.711     166.208
  H      374.528      31.780     170.576
  P      377.552      30.984     172.690
  C      378.502      32.863     174.223
  O      377.373      32.086     173.842
  O      378.848      30.169     173.158
  O      376.383      30.088     172.456
  H      378.582      29.376     173.659
  H      378.220      33.547     174.996
  H      378.860      33.410     173.376
  H      379.275      32.216     174.583

 6  7  8  9  10  11  12  13  14  15  25  28  32  33  34  35 0
 6-311+G(2d,p)
 ****
 36  39  40 0
 6-311+G(2d,p)
 ****
 1  2  3  4  5  16  17  18  19  20  21  22  23  24 0
 3-21G
 ****
 26  27  29  30  31  37  38  41  42  43  44  45  46  47  48 0
 3-21G
 ****


