%nproc=1
%NoSave
%Mem=1900MB
#P OB98/GEN NMR

erre ene a

0 1
  C     -283.747    -415.597    -263.388
  O     -282.917    -416.734    -263.502
  H     -283.294    -414.906    -262.675
  H     -284.739    -415.878    -263.025
  H     -283.833    -415.091    -264.355
  P     -283.418    -417.957    -264.409
  C     -281.950    -417.336    -266.448
  O     -283.267    -417.490    -265.937
  C     -281.580    -418.512    -267.362
  O     -282.609    -418.661    -268.381
  C     -280.236    -418.330    -268.096
  O     -279.684    -419.636    -268.303
  C     -280.691    -417.726    -269.409
  O     -279.678    -417.771    -270.376
  C     -281.959    -418.547    -269.667
  N     -282.828    -417.943    -270.665
  C     -282.400    -418.041    -271.996
  O     -281.339    -418.602    -272.267
  N     -283.172    -417.475    -272.979
  C     -284.236    -416.806    -272.655
  N     -284.951    -416.257    -273.678
  C     -284.692    -416.633    -271.257
  C     -283.947    -417.224    -270.324
  O     -284.753    -418.523    -264.056
  O     -282.262    -419.055    -264.252
  H     -279.135    -418.585    -270.283
  H     -282.567    -419.772    -263.665
  H     -285.576    -416.053    -271.041
  H     -284.196    -417.151    -269.271
  H     -281.703    -419.567    -269.995
  H     -280.953    -416.670    -269.277
  H     -279.530    -417.705    -267.539
  H     -281.583    -419.433    -266.770
  H     -284.599    -416.397    -274.617
  H     -281.266    -417.296    -265.594
  H     -285.781    -415.701    -273.546
  H     -281.869    -416.397    -267.010
  P     -278.456    -420.212    -267.440
  C     -279.668    -421.303    -265.437
  O     -278.861    -420.219    -265.890
  O     -277.149    -419.549    -267.730
  O     -278.382    -421.772    -267.814
  H     -277.458    -422.071    -267.753
  H     -279.865    -421.188    -264.392
  H     -279.152    -422.226    -265.604
  H     -280.592    -421.309    -265.976

 6  7  8  9  10  11  12  13  14  15  16  26  30  31  32  33  35 0
 6-311+G(2d,p)
 ****
 37  38 0
 6-311+G(2d,p)
 ****
 1  2  3  4  5  17  18  19  20  21  22  23  24  25 0
 3-21G
 ****
 27  28  29  34  36  39  40  41  42  43  44  45  46 0
 3-21G
 ****


