%nproc=1
%NoSave
%Mem=1900MB
#P OB98/GEN NMR

erre ene a

0 1
  C      329.965    -109.922     -14.199
  O      331.099    -110.755     -14.074
  P      331.719    -111.178     -12.663
  C      333.289    -109.113     -12.911
  O      332.470    -109.901     -12.039
  C      333.137    -107.602     -12.666
  O      331.733    -107.263     -12.590
  C      333.752    -107.223     -11.311
  O      335.144    -106.993     -11.203
  C      332.867    -106.099     -10.783
  O      333.423    -104.808     -11.019
  C      331.559    -106.278     -11.558
  N      327.629    -104.697      -8.761
  C      328.374    -103.993      -9.693
  N      328.167    -102.660      -9.737
  N      329.257    -104.555     -10.480
  C      329.424    -105.877     -10.256
  C      328.738    -106.683      -9.378
  C      327.731    -106.062      -8.541
  O      327.111    -106.635      -7.646
  N      329.228    -107.960      -9.364
  C      330.244    -107.925     -10.206
  N      330.428    -106.671     -10.741
  O      332.396    -112.511     -12.597
  O      330.393    -111.268     -11.742
  H      334.322    -104.793     -10.639
  H      330.528    -111.985     -11.097
  H      327.019    -104.197      -8.131
  H      330.892    -108.766     -10.436
  H      331.282    -105.345     -12.062
  H      332.745    -106.188      -9.697
  H      327.605    -102.180      -9.045
  H      333.566    -108.071     -10.637
  H      328.812    -102.095     -10.276
  H      333.540    -107.031     -13.509
  H      333.005    -109.370     -13.942
  H      334.337    -109.398     -12.783
  P      336.224    -108.001     -10.601
  C      336.935    -106.152      -8.979
  O      336.597    -107.520      -9.115
  O      337.566    -107.685     -11.427
  O      335.879    -109.451     -10.724
  H      338.164    -108.455     -11.384
  H      337.449    -106.009      -8.028
  H      336.019    -105.548      -8.985
  H      337.597    -105.823      -9.795
  H      329.739    -109.780     -15.235
  H      330.167    -108.974     -13.745
  H      329.130    -110.380     -13.711

 3  4  5  6  7  8  9  10  11  12  23  26  30  31 0
 6-311+G(2d,p)
 ****
 33  35  36  37  38 0
 6-311+G(2d,p)
 ****
 1  2  13  14  15  16  17  18  19  20  21  22  24  25 0
 3-21G
 ****
 27  28  29  32  34  39  40  41  42  43  44  45  46  47  48  49 0
 3-21G
 ****


