%nproc=1
%NoSave
%Mem=1900MB
#P OB98/GEN NMR

erre ene a

0 1
  C      -27.653     192.868     -49.854
  O      -28.722     192.186     -49.220
  P      -30.141     192.893     -49.016
  C      -30.603     193.908     -46.638
  O      -29.985     194.024     -47.900
  C      -29.672     193.132     -45.696
  O      -28.401     193.807     -45.586
  C      -30.264     193.010     -44.294
  O      -30.960     191.781     -44.150
  C      -29.040     193.119     -43.405
  O      -28.362     191.851     -43.323
  C      -28.178     194.139     -44.188
  N      -28.464     195.576     -44.010
  C      -28.193     196.181     -42.786
  O      -27.693     195.597     -41.829
  N      -28.546     197.505     -42.688
  C      -29.086     198.263     -43.688
  O      -29.615     199.356     -43.520
  C      -29.092     197.646     -45.017
  C      -28.808     196.345     -45.112
  O      -31.004     191.765     -48.279
  O      -30.801     193.381     -50.263
  H      -28.979     191.224     -42.904
  H      -31.573     191.298     -48.919
  H      -28.483     197.914     -41.760
  H      -29.379     198.253     -45.865
  H      -28.843     195.856     -46.081
  H      -27.111     193.992     -43.979
  H      -29.314     193.385     -42.386
  H      -30.925     193.862     -44.086
  H      -29.488     192.137     -46.120
  H      -31.563     193.389     -46.736
  H      -30.814     194.901     -46.228
  P      -32.245     191.708     -43.199
  C      -31.893     190.455     -40.988
  O      -31.662     191.653     -41.705
  O      -33.239     190.646     -43.537
  O      -32.878     193.177     -43.322
  H      -33.608     193.169     -43.973
  H      -31.299     190.476     -40.072
  H      -31.596     189.588     -41.586
  H      -32.951     190.382     -40.725
  H      -26.796     192.229     -49.893
  H      -27.414     193.751     -49.299
  H      -27.942     193.139     -50.848

 3  4  5  6  7  8  9  10  11  12  13  23  28  29  30  31  32 0
 6-311+G(2d,p)
 ****
 33  34 0
 6-311+G(2d,p)
 ****
 1  2  14  15  16  17  18  19  20  21  22  24  25  26  27 0
 3-21G
 ****
 35  36  37  38  39  40  41  42  43  44  45 0
 3-21G
 ****


