%nproc=1
%NoSave
%Mem=1900MB
#P OB98/GEN NMR

erre ene a

0 1
  C     -121.247     -11.543     -61.414
  O     -122.158     -12.165     -62.315
  P     -123.728     -11.943     -62.091
  C     -124.690     -14.211     -63.056
  O     -124.554     -12.810     -63.145
  C     -124.780     -14.803     -64.472
  O     -123.458     -15.019     -65.010
  C     -125.506     -16.144     -64.519
  O     -126.908     -15.986     -64.639
  C     -124.866     -16.805     -65.724
  O     -125.419     -16.270     -66.941
  C     -123.392     -16.365     -65.561
  N     -122.512     -17.185     -64.701
  C     -121.376     -17.783     -65.241
  O     -121.035     -17.683     -66.417
  N     -120.607     -18.510     -64.371
  C     -120.752     -18.562     -63.016
  O     -119.998     -19.182     -62.279
  C     -121.879     -17.793     -62.477
  C     -122.697     -17.165     -63.325
  O     -123.969     -10.436     -62.563
  O     -124.188     -12.170     -60.685
  H     -124.741     -16.369     -67.632
  H     -124.254      -9.885     -61.810
  H     -119.821     -19.008     -64.759
  H     -122.005     -17.768     -61.403
  H     -123.535     -16.592     -62.935
  H     -122.900     -16.296     -66.538
  H     -125.069     -17.873     -65.743
  H     -125.257     -16.741     -63.637
  H     -125.293     -14.079     -65.117
  H     -125.578     -14.481     -62.482
  H     -123.829     -14.631     -62.524
  P     -127.892     -17.081     -64.011
  C     -129.922     -17.022     -65.577
  O     -129.377     -16.574     -64.352
  O     -127.644     -17.444     -62.586
  O     -127.724     -18.340     -64.990
  H     -127.071     -18.981     -64.625
  H     -130.979     -16.743     -65.614
  H     -129.839     -18.109     -65.659
  H     -129.401     -16.546     -66.412
  H     -120.244     -11.786     -61.696
  H     -121.433     -11.894     -60.420
  H     -121.380     -10.482     -61.448

 3  4  5  6  7  8  9  10  11  12  13  23  28  29  30  31  32 0
 6-311+G(2d,p)
 ****
 33  34 0
 6-311+G(2d,p)
 ****
 1  2  14  15  16  17  18  19  20  21  22  24  25  26  27 0
 3-21G
 ****
 35  36  37  38  39  40  41  42  43  44  45 0
 3-21G
 ****


