%nproc=1
%NoSave
%Mem=1900MB
#P OB98/GEN NMR

erre ene a

0 1
  C      873.193     452.556    -284.590
  O      873.552     453.780    -285.244
  P      874.551     454.793    -284.484
  C      876.590     454.799    -286.069
  O      875.449     455.512    -285.589
  C      876.720     454.919    -287.589
  O      875.711     454.131    -288.278
  C      876.556     456.350    -288.088
  O      877.713     457.131    -287.808
  C      876.284     456.103    -289.577
  O      877.513     455.912    -290.293
  C      875.463     454.778    -289.533
  N      874.043     454.976    -289.764
  C      873.532     454.452    -290.952
  O      874.279     453.904    -291.778
  N      872.183     454.584    -291.210
  C      871.424     455.208    -290.355
  N      870.095     455.310    -290.651
  C      871.919     455.779    -289.088
  C      873.236     455.643    -288.869
  O      875.290     454.223    -283.319
  O      873.552     455.979    -284.030
  H      877.834     455.034    -290.029
  H      873.892     456.371    -283.214
  H      871.258     456.270    -288.402
  H      873.688     456.036    -287.967
  H      875.834     454.097    -290.306
  H      875.766     456.950    -290.037
  H      875.667     456.793    -287.615
  H      877.718     454.545    -287.878
  H      869.770     454.912    -291.537
  H      876.519     453.750    -285.780
  H      869.417     455.723    -290.032
  H      877.488     455.197    -285.554
  P      877.645     458.699    -288.161
  C      878.224     459.553    -285.778
  O      878.619     459.450    -287.126
  O      876.175     459.121    -287.648
  O      877.834     459.013    -289.600
  H      875.816     459.806    -288.224
  H      879.112     459.798    -285.178
  H      877.843     458.592    -285.403
  H      877.464     460.325    -285.644
  H      872.530     451.998    -285.217
  H      872.706     452.776    -283.663
  H      874.075     451.980    -284.401

 3  4  5  6  7  8  9  10  11  12  13  23  27  28  29  30  32 0
 6-311+G(2d,p)
 ****
 34  35 0
 6-311+G(2d,p)
 ****
 1  2  14  15  16  17  18  19  20  21  22  24  25  26 0
 3-21G
 ****
 31  33  36  37  38  39  40  41  42  43  44  45  46 0
 3-21G
 ****


