%nproc=1
%NoSave
%Mem=1900MB
#P OB98/GEN NMR

erre ene a

0 1
  C      -13.744      98.825      17.011
  O      -12.585      99.060      17.793
  P      -11.169      99.098      17.037
  C       -9.630      97.977      18.853
  O      -10.060      99.156      18.193
  C       -8.324      98.241      19.607
  O       -7.275      98.571      18.672
  C       -8.381      99.410      20.582
  O       -9.056      99.065      21.782
  C       -6.900      99.724      20.754
  O       -6.301      98.809      21.689
  C       -6.355      99.465      19.335
  N       -6.158     100.689      18.561
  C       -4.925     101.318      18.711
  O       -4.035     100.890      19.443
  N       -4.757     102.476      17.998
  C       -5.699     103.085      17.221
  O       -5.510     104.145      16.639
  C       -6.992     102.391      17.129
  C       -7.159     101.244      17.791
  O      -11.202     100.576      16.427
  O      -11.008      98.003      16.039
  H      -11.756     101.174      16.958
  H       -6.616      97.918      21.443
  H       -3.864     102.939      18.072
  H       -7.768     102.849      16.528
  H       -8.108     100.725      17.742
  H       -5.398      98.932      19.387
  H       -6.724     100.737      21.129
  H       -8.883     100.264      20.112
  H       -8.038      97.319      20.129
  H       -9.471      97.191      18.111
  H      -10.413      97.652      19.546
  P      -10.568      99.596      21.934
  C      -10.114      99.542      24.507
  O      -11.002      99.282      23.443
  O      -11.365      98.518      21.060
  O      -10.753     101.011      21.492
  H      -11.052      97.610      21.204
  H      -10.688      99.609      25.435
  H       -9.575     100.481      24.357
  H       -9.398      98.721      24.595
  H      -14.607      98.827      17.643
  H      -13.660      97.875      16.525
  H      -13.840      99.595      16.275

 3  4  5  6  7  8  9  10  11  12  13  24  28  29  30  31  32 0
 6-311+G(2d,p)
 ****
 33  34 0
 6-311+G(2d,p)
 ****
 1  2  14  15  16  17  18  19  20  21  22  23  25  26  27 0
 3-21G
 ****
 35  36  37  38  39  40  41  42  43  44  45 0
 3-21G
 ****


