%nproc=1
%NoSave
%Mem=1900MB
#P OB98/GEN NMR

erre ene a

0 1
  C       15.056      -6.906      13.786
  O       16.197      -7.401      13.116
  H       15.276      -6.759      14.847
  H       14.780      -5.944      13.347
  H       14.218      -7.600      13.672
  P       16.747      -8.830      13.596
  C       18.839      -7.963      14.862
  O       18.337      -8.671      13.739
  C       20.363      -8.030      14.887
  O       20.797      -9.373      15.183
  C       21.039      -7.661      13.571
  O       21.117      -6.256      13.394
  C       22.416      -8.275      13.778
  O       23.211      -7.412      14.613
  C       22.078      -9.571      14.530
  N       24.485     -13.783      12.909
  C       24.809     -12.862      13.841
  N       24.107     -11.779      14.232
  C       22.945     -11.702      13.564
  C       22.466     -12.575      12.603
  C       23.295     -13.659      12.269
  N       22.981     -14.559      11.264
  N       21.237     -12.157      12.130
  C       20.991     -11.041      12.782
  N       21.989     -10.729      13.663
  O       16.569      -9.737      12.286
  O       16.047      -9.417      14.775
  H       24.132      -7.726      14.544
  H       15.738     -10.241      12.357
  H       25.762     -13.012      14.337
  H       20.111     -10.427      12.646
  H       22.809      -9.796      15.314
  H       22.967      -8.419      12.845
  H       20.554      -8.151      12.719
  H       20.715      -7.382      15.700
  H       18.443      -8.408      15.780
  H       23.797     -14.965      10.814
  H       22.227     -14.262      10.657
  H       18.506      -6.923      14.798
  P       21.304      -5.701      11.900
  C       23.376      -4.231      12.386
  O       22.000      -4.260      12.032
  O       19.805      -5.362      11.456
  O       21.949      -6.646      10.946
  H       19.588      -5.841      10.633
  H       23.709      -3.216      12.439
  H       23.945      -4.756      11.647
  H       23.509      -4.700      13.339

 6  7  8  9  10  11  12  13  14  15  25  28  32  33  34  35 0
 6-311+G(2d,p)
 ****
 36  39  40 0
 6-311+G(2d,p)
 ****
 1  2  3  4  5  16  17  18  19  20  21  22  23  24 0
 3-21G
 ****
 26  27  29  30  31  37  38  41  42  43  44  45  46  47  48 0
 3-21G
 ****


