%nproc=1
%NoSave
%Mem=1900MB
#P OB98/GEN NMR

erre ene a

0 1
  C      280.538     -22.527     149.512
  O      280.944     -23.648     148.747
  P      280.386     -25.086     149.196
  C      282.775     -25.865     149.875
  O      281.422     -25.673     150.267
  C      283.405     -26.990     150.694
  O      283.282     -26.707     152.102
  C      282.761     -28.355     150.497
  O      283.151     -28.934     149.263
  C      283.271     -29.086     151.734
  O      284.626     -29.515     151.529
  C      283.223     -27.979     152.801
  N      280.399     -30.855     155.956
  C      281.541     -31.113     155.281
  N      282.221     -30.303     154.444
  C      281.611     -29.112     154.336
  C      280.433     -28.713     154.943
  C      279.815     -29.645     155.792
  N      278.647     -29.381     156.474
  N      280.102     -27.427     154.575
  C      281.072     -27.049     153.768
  N      282.014     -28.027     153.603
  O      280.635     -25.993     147.904
  O      278.951     -25.098     149.621
  H      284.600     -30.279     150.920
  H      279.931     -26.663     147.806
  H      281.967     -32.101     155.437
  H      281.137     -26.084     153.287
  H      284.077     -28.018     153.487
  H      282.680     -29.972     151.985
  H      281.667     -28.270     150.537
  H      284.473     -27.034     150.444
  H      283.340     -24.944     150.046
  H      278.195     -30.151     156.941
  H      278.143     -28.534     156.242
  H      282.806     -26.096     148.805
  P      282.003     -29.625     148.379
  C      282.550     -31.884     149.473
  O      281.559     -30.897     149.255
  O      282.857     -30.292     147.205
  O      280.907     -28.714     147.951
  H      283.616     -30.797     147.545
  H      282.134     -32.659     150.122
  H      283.426     -31.443     149.959
  H      282.840     -32.339     148.521
  H      280.979     -21.640     149.107
  H      280.857     -22.653     150.526
  H      279.472     -22.441     149.481

 3  4  5  6  7  8  9  10  11  12  22  25  29  30  31  32 0
 6-311+G(2d,p)
 ****
 33  36  37 0
 6-311+G(2d,p)
 ****
 1  2  13  14  15  16  17  18  19  20  21  23  24  26 0
 3-21G
 ****
 27  28  34  35  38  39  40  41  42  43  44  45  46  47  48 0
 3-21G
 ****


