%nproc=1
%NoSave
%Mem=1900MB
#P OB98/GEN NMR

erre ene a

0 1
  C      -10.815    -278.764     165.958
  O      -10.575    -277.469     166.509
  P       -9.983    -276.311     165.579
  C      -10.926    -275.005     163.553
  O      -11.188    -275.555     164.840
  C      -12.236    -274.841     162.777
  O      -13.017    -276.060     162.788
  C      -13.157    -273.787     163.382
  O      -12.742    -272.441     163.280
  C      -14.504    -274.150     162.778
  O      -14.658    -273.603     161.472
  C      -14.410    -275.692     162.717
  N      -15.188    -276.346     163.770
  C      -16.423    -276.863     163.389
  O      -16.880    -276.752     162.253
  N      -17.139    -277.487     164.376
  C      -16.765    -277.610     165.682
  O      -17.458    -278.157     166.531
  C      -15.463    -277.023     166.031
  C      -14.744    -276.428     165.075
  O       -8.846    -276.704     164.700
  O       -9.500    -275.211     166.649
  H      -14.674    -272.631     161.562
  H       -8.646    -274.852     166.342
  H      -18.034    -277.873     164.115
  H      -15.134    -277.098     167.059
  H      -13.780    -275.992     165.311
  H      -14.783    -276.059     161.750
  H      -15.332    -273.768     163.384
  H      -13.232    -273.989     164.462
  H      -11.997    -274.611     161.739
  H      -10.240    -275.652     163.006
  H      -10.414    -274.045     163.675
  P      -11.699    -271.761     164.291
  C       -9.139    -271.372     164.394
  O      -10.234    -271.843     163.643
  O      -11.827    -272.103     165.737
  O      -12.051    -270.202     164.102
  H      -11.906    -269.749     164.956
  H       -8.231    -271.490     163.795
  H       -9.028    -271.947     165.316
  H       -9.265    -270.310     164.631
  H      -11.208    -279.407     166.717
  H       -9.897    -279.170     165.587
  H      -11.520    -278.686     165.157

 3  4  5  6  7  8  9  10  11  12  13  23  28  29  30  31  32 0
 6-311+G(2d,p)
 ****
 33  34 0
 6-311+G(2d,p)
 ****
 1  2  14  15  16  17  18  19  20  21  22  24  25  26  27 0
 3-21G
 ****
 35  36  37  38  39  40  41  42  43  44  45 0
 3-21G
 ****


