%nproc=1
%NoSave
%Mem=1900MB
#P OB98/GEN NMR

erre ene a

0 1
  C     -291.421     162.058     546.249
  O     -292.185     161.271     545.364
  H     -291.478     161.624     547.255
  H     -291.840     163.071     546.282
  H     -290.373     162.105     545.942
  P     -291.934     161.473     543.792
  C     -290.213     159.527     543.679
  O     -291.455     160.050     543.218
  C     -290.443     158.216     544.438
  O     -291.101     158.526     545.710
  C     -291.326     157.190     543.694
  O     -290.834     155.879     543.967
  C     -292.666     157.351     544.383
  O     -293.481     156.188     544.251
  C     -292.226     157.635     545.819
  N     -295.707     156.532     549.270
  C     -294.636     155.794     548.819
  N     -294.489     154.543     549.303
  N     -293.768     156.250     547.942
  C     -294.013     157.523     547.551
  C     -295.045     158.347     547.923
  C     -296.011     157.843     548.883
  O     -296.980     158.426     549.311
  N     -294.972     159.552     547.246
  C     -293.926     159.434     546.449
  N     -293.304     158.226     546.600
  O     -290.594     162.363     543.767
  O     -293.049     162.124     543.044
  H     -292.941     155.403     544.455
  H     -290.829     163.306     543.697
  H     -296.360     156.140     549.934
  H     -293.577     160.179     545.758
  H     -291.901     156.738     546.343
  H     -293.220     158.204     543.963
  H     -295.097     154.134     550.004
  H     -291.378     157.349     542.618
  H     -293.688     154.005     549.006
  H     -289.460     157.774     544.684
  H     -289.746     160.257     544.349
  H     -289.557     159.368     542.824
  P     -290.811     154.809     542.768
  C     -288.238     155.082     542.504
  O     -289.339     154.194     542.643
  O     -290.927     155.733     541.465
  O     -291.920     153.804     542.837
  H     -291.459     155.269     540.776
  H     -287.332     154.518     542.433
  H     -288.191     155.728     543.356
  H     -288.363     155.669     541.618

 6  7  8  9  10  11  12  13  14  15  26  29  33  34 0
 6-311+G(2d,p)
 ****
 36  38  39  40  41 0
 6-311+G(2d,p)
 ****
 1  2  3  4  5  16  17  18  19  20  21  22  23  24  25 0
 3-21G
 ****
 27  28  30  31  32  35  37  42  43  44  45  46  47 0
 3-21G
 ****
 48  49 0
 3-21G
 ****


