%nproc=1
%NoSave
%Mem=1900MB
#P OB98/GEN NMR

erre ene a

0 1
  C     1172.583    -223.341    -187.661
  O     1172.914    -222.051    -188.165
  P     1174.443    -221.548    -188.301
  C     1174.477    -221.469    -185.721
  O     1174.731    -220.768    -186.941
  C     1174.662    -220.516    -184.531
  O     1176.074    -220.246    -184.360
  C     1173.993    -219.150    -184.676
  O     1172.615    -219.111    -184.319
  C     1174.799    -218.354    -183.627
  O     1174.304    -218.637    -182.303
  C     1176.208    -218.911    -183.839
  N     1179.718    -215.188    -184.163
  C     1179.159    -215.833    -183.092
  N     1178.211    -216.778    -183.090
  C     1177.897    -217.130    -184.344
  C     1178.394    -216.607    -185.528
  C     1179.355    -215.596    -185.416
  N     1179.951    -214.968    -186.500
  N     1177.811    -217.227    -186.639
  C     1176.993    -218.129    -186.120
  N     1177.006    -218.093    -184.743
  O     1174.751    -220.848    -189.576
  O     1175.286    -222.905    -188.122
  H     1174.224    -219.597    -182.229
  H     1176.213    -222.759    -188.452
  H     1179.471    -215.473    -182.117
  H     1176.364    -218.773    -186.692
  H     1176.768    -218.987    -182.894
  H     1174.703    -217.263    -183.787
  H     1174.166    -218.714    -185.654
  H     1174.307    -221.030    -183.625
  H     1175.207    -222.285    -185.640
  H     1180.738    -214.348    -186.311
  H     1179.799    -215.386    -187.423
  H     1173.487    -221.891    -185.751
  P     1171.629    -218.322    -185.293
  C     1171.958    -216.266    -183.672
  O     1171.056    -217.084    -184.423
  O     1170.590    -219.159    -185.959
  O     1172.633    -217.600    -186.316
  H     1173.210    -216.915    -185.933
  H     1171.400    -215.409    -183.305
  H     1172.764    -215.915    -184.320
  H     1172.356    -216.840    -182.842
  H     1171.520    -223.461    -187.659
  H     1172.955    -223.440    -186.663
  H     1173.025    -224.091    -188.283

 3  4  5  6  7  8  9  10  11  12  22  25  29  30  31  32 0
 6-311+G(2d,p)
 ****
 33  36  37 0
 6-311+G(2d,p)
 ****
 1  2  13  14  15  16  17  18  19  20  21  23  24  26 0
 3-21G
 ****
 27  28  34  35  38  39  40  41  42  43  44  45  46  47  48 0
 3-21G
 ****


