%nproc=1
%NoSave
%Mem=1900MB
#P OB98/GEN NMR

erre ene a

0 1
  C      779.158    -103.119     917.188
  O      779.982    -104.258     917.077
  H      778.396    -103.161     916.407
  H      779.744    -102.204     917.054
  H      778.667    -103.108     918.168
  P      781.216    -104.357     918.104
  C      780.033    -106.186     919.479
  O      780.554    -104.863     919.478
  C      779.581    -106.580     920.884
  O      780.722    -106.497     921.780
  C      778.490    -105.660     921.461
  O      777.593    -106.441     922.265
  C      779.258    -104.725     922.363
  O      778.445    -104.136     923.373
  C      780.364    -105.644     922.878
  N      782.120    -102.747     926.683
  C      781.007    -103.505     926.554
  N      780.632    -104.268     925.512
  C      781.567    -104.248     924.543
  C      782.748    -103.525     924.525
  C      783.012    -102.738     925.658
  N      784.116    -101.929     925.782
  N      783.418    -103.726     923.339
  C      782.652    -104.569     922.655
  N      781.517    -104.889     923.332
  O      782.062    -103.139     918.223
  O      781.977    -105.673     917.590
  H      778.996    -103.516     923.885
  H      781.353    -106.395     917.414
  H      780.328    -103.493     927.406
  H      782.871    -104.947     921.659
  H      780.027    -106.274     923.719
  H      779.692    -103.901     921.764
  H      777.931    -105.125     920.692
  H      779.255    -107.623     920.871
  H      780.789    -106.893     919.132
  H      784.224    -101.400     926.635
  H      784.798    -101.914     925.039
  H      779.183    -106.225     918.785
  P      776.287    -107.067     921.568
  C      777.026    -109.532     921.771
  O      776.680    -108.476     920.874
  O      775.509    -106.150     920.697
  O      775.421    -107.547     922.829
  H      774.484    -107.311     922.667
  H      777.267    -110.411     921.211
  H      776.198    -109.736     922.418
  H      777.872    -109.240     922.357

 6  7  8  9  10  11  12  13  14  15  25  28  32  33  34  35 0
 6-311+G(2d,p)
 ****
 36  39  40 0
 6-311+G(2d,p)
 ****
 1  2  3  4  5  16  17  18  19  20  21  22  23  24 0
 3-21G
 ****
 26  27  29  30  31  37  38  41  42  43  44  45  46  47 0
 3-21G
 ****
 48 0
 3-21G
 ****


