%nproc=1
%NoSave
%Mem=1900MB
#P OB98/GEN NMR

erre ene a

0 1
  C       42.497     279.330    -558.412
  O       41.708     280.253    -557.688
  H       41.863     278.499    -558.729
  H       43.299     278.940    -557.781
  H       42.917     279.810    -559.297
  P       42.482     281.501    -557.038
  C       40.155     282.594    -556.590
  O       41.389     282.147    -556.051
  C       39.079     282.591    -555.508
  O       38.605     281.247    -555.260
  C       39.545     283.105    -554.151
  O       39.644     284.516    -554.082
  C       38.432     282.565    -553.270
  O       37.251     283.364    -553.451
  C       38.251     281.152    -553.860
  N       39.081     280.140    -553.190
  C       38.630     279.679    -551.949
  O       37.584     280.105    -551.461
  N       39.390     278.757    -551.270
  C       40.497     278.316    -551.787
  N       41.207     277.411    -551.070
  C       41.004     278.773    -553.100
  C       40.257     279.671    -553.732
  O       42.549     282.561    -558.235
  O       43.799     281.195    -556.404
  H       36.591     283.047    -552.802
  H       42.877     283.434    -557.896
  H       41.941     278.392    -553.483
  H       40.568     280.050    -554.702
  H       37.206     280.833    -553.804
  H       38.674     282.591    -552.208
  H       40.496     282.634    -553.849
  H       38.229     283.178    -555.885
  H       40.862     277.165    -550.147
  H       39.871     281.914    -557.404
  H       42.148     277.126    -551.318
  H       40.266     283.603    -556.992
  P       41.112     285.152    -553.951
  C       40.207     287.595    -553.904
  O       40.944     286.578    -553.239
  O       41.486     285.534    -555.459
  O       42.141     284.243    -553.330
  H       42.441     285.422    -555.625
  H       40.190     288.477    -553.298
  H       39.205     287.258    -554.072
  H       40.671     287.816    -554.843

 6  7  8  9  10  11  12  13  14  15  16  26  30  31  32  33  35 0
 6-311+G(2d,p)
 ****
 37  38 0
 6-311+G(2d,p)
 ****
 1  2  3  4  5  17  18  19  20  21  22  23  24  25 0
 3-21G
 ****
 27  28  29  34  36  39  40  41  42  43  44  45  46 0
 3-21G
 ****


