%nproc=1
%NoSave
%Mem=1900MB
#P OB98/GEN NMR

erre ene a

0 1
  C      -59.717    -123.928    -200.623
  O      -59.449    -123.549    -201.969
  P      -60.680    -123.159    -202.918
  C      -60.848    -121.925    -205.251
  O      -60.146    -122.772    -204.373
  C      -59.907    -121.477    -206.393
  O      -58.884    -120.590    -205.877
  C      -59.190    -122.648    -207.064
  O      -59.963    -123.216    -208.106
  C      -57.911    -121.986    -207.555
  O      -58.162    -121.226    -208.746
  C      -57.587    -121.038    -206.372
  N      -56.821    -121.585    -205.228
  C      -56.456    -120.738    -204.180
  O      -56.728    -119.544    -204.124
  N      -55.764    -121.327    -203.147
  C      -55.550    -122.664    -202.974
  O      -54.976    -123.142    -202.006
  C      -56.083    -123.527    -204.041
  C      -56.670    -122.958    -205.099
  O      -61.202    -121.776    -202.316
  O      -61.768    -124.197    -202.972
  H      -59.038    -120.801    -208.640
  H      -62.106    -121.876    -201.968
  H      -55.435    -120.714    -202.413
  H      -55.975    -124.598    -203.918
  H      -57.068    -123.590    -205.891
  H      -57.050    -120.155    -206.718
  H      -57.160    -122.731    -207.818
  H      -58.912    -123.406    -206.322
  H      -60.502    -120.928    -207.133
  H      -61.229    -121.047    -204.725
  H      -61.715    -122.451    -205.660
  P      -60.714    -124.612    -207.868
  C      -63.111    -125.465    -208.184
  O      -62.231    -124.377    -208.357
  O      -60.563    -125.221    -206.511
  O      -60.126    -125.565    -209.019
  H      -59.382    -126.111    -208.677
  H      -64.137    -125.124    -208.404
  H      -63.077    -125.838    -207.152
  H      -62.850    -126.272    -208.876
  H      -58.797    -124.156    -200.127
  H      -60.350    -124.791    -200.615
  H      -60.206    -123.122    -200.116

 3  4  5  6  7  8  9  10  11  12  13  23  28  29  30  31  32 0
 6-311+G(2d,p)
 ****
 33  34 0
 6-311+G(2d,p)
 ****
 1  2  14  15  16  17  18  19  20  21  22  24  25  26  27 0
 3-21G
 ****
 35  36  37  38  39  40  41  42  43  44  45 0
 3-21G
 ****


