%nproc=1
%NoSave
%Mem=1900MB
#P OB98/GEN NMR

erre ene a

0 1
  C     -328.370     549.863     583.694
  O     -329.733     549.733     583.323
  H     -328.192     549.258     584.583
  H     -328.151     550.908     583.931
  H     -327.704     549.517     582.900
  P     -330.196     550.283     581.885
  C     -331.730     552.193     582.697
  O     -331.664     550.906     582.100
  C     -333.195     552.613     582.911
  O     -333.838     552.759     581.621
  C     -334.011     551.612     583.733
  O     -335.010     552.356     584.457
  C     -334.673     550.787     582.647
  O     -335.782     550.058     583.127
  C     -334.978     551.880     581.606
  N     -335.240     551.320     580.277
  C     -336.576     551.258     579.876
  O     -337.512     551.606     580.598
  N     -336.806     550.737     578.643
  C     -335.856     550.223     577.796
  O     -336.121     549.730     576.709
  C     -334.480     550.281     578.285
  C     -334.224     550.818     579.496
  O     -330.091     549.310     580.761
  O     -329.292     551.583     581.647
  H     -336.205     549.558     582.396
  H     -329.142     551.706     580.688
  H     -337.763     550.691     578.333
  H     -333.698     549.870     577.650
  H     -333.216     550.879     579.867
  H     -335.858     552.457     581.913
  H     -333.956     550.057     582.227
  H     -333.406     551.017     584.417
  H     -333.199     553.608     583.383
  H     -331.233     552.902     582.028
  H     -331.201     552.168     583.650
  P     -334.717     552.967     585.911
  C     -334.490     550.709     587.127
  O     -335.229     551.923     587.024
  O     -335.233     554.370     586.096
  O     -333.124     552.936     586.070
  H     -332.825     553.637     586.668
  H     -334.917     550.096     587.893
  H     -333.472     550.931     587.373
  H     -334.526     550.189     586.193

 6  7  8  9  10  11  12  13  14  15  16  26  31  32  33  34  35 0
 6-311+G(2d,p)
 ****
 36  37 0
 6-311+G(2d,p)
 ****
 1  2  3  4  5  17  18  19  20  21  22  23  24  25 0
 3-21G
 ****
 27  28  29  30  38  39  40  41  42  43  44  45 0
 3-21G
 ****


