%nproc=1
%NoSave
%Mem=1900MB
#P OB98/GEN NMR

erre ene a

0 1
  C     -367.467     396.217     -21.787
  O     -366.432     396.484     -22.709
  H     -367.057     395.641     -20.956
  H     -368.255     395.630     -22.267
  H     -367.887     397.147     -21.392
  P     -366.725     397.474     -23.935
  C     -367.253     399.797     -22.939
  O     -366.257     398.936     -23.470
  C     -367.568     400.934     -23.920
  O     -368.822     401.567     -23.509
  C     -366.497     402.040     -23.969
  O     -366.520     402.588     -25.298
  C     -367.056     403.026     -22.958
  O     -366.408     404.272     -22.997
  C     -368.540     402.974     -23.349
  N     -369.459     403.581     -22.397
  C     -369.908     404.869     -22.657
  O     -369.587     405.534     -23.642
  N     -370.766     405.402     -21.729
  C     -371.220     404.778     -20.604
  O     -372.012     405.291     -19.826
  C     -370.705     403.418     -20.377
  C     -369.868     402.889     -21.269
  O     -368.098     397.405     -24.515
  O     -365.609     397.076     -25.015
  H     -366.013     396.521     -25.709
  H     -366.316     404.556     -23.931
  H     -371.104     406.332     -21.907
  H     -371.034     402.900     -19.487
  H     -369.481     401.881     -21.134
  H     -368.681     403.445     -24.331
  H     -366.908     402.643     -21.942
  H     -365.492     401.680     -23.743
  H     -367.741     400.505     -24.915
  H     -366.877     400.216     -21.999
  H     -368.157     399.216     -22.732
  P     -365.286     402.480     -26.317
  C     -365.470     400.191     -27.502
  O     -365.746     401.581     -27.565
  O     -364.014     402.022     -25.684
  O     -365.126     403.948     -26.940
  H     -364.200     404.083     -27.223
  H     -365.827     399.716     -28.392
  H     -365.961     399.768     -26.650
  H     -364.414     400.041     -27.417

 6  7  8  9  10  11  12  13  14  15  16  27  31  32  33  34  35 0
 6-311+G(2d,p)
 ****
 36  37 0
 6-311+G(2d,p)
 ****
 1  2  3  4  5  17  18  19  20  21  22  23  24  25 0
 3-21G
 ****
 26  28  29  30  38  39  40  41  42  43  44  45 0
 3-21G
 ****


