%nproc=1
%NoSave
%Mem=1900MB
#P OB98/GEN NMR

erre ene a

0 1
  C     -319.506    -251.760    -455.459
  O     -318.997    -252.219    -454.200
  P     -317.551    -252.912    -454.199
  C     -316.426    -251.762    -452.151
  O     -316.498    -251.882    -453.566
  C     -316.977    -250.403    -451.704
  O     -318.369    -250.269    -452.046
  C     -316.914    -250.198    -450.202
  O     -315.601    -249.858    -449.801
  C     -317.928    -249.077    -449.995
  O     -317.317    -247.779    -450.094
  C     -318.932    -249.298    -451.149
  N     -320.244    -249.712    -450.681
  C     -321.058    -248.698    -450.161
  O     -320.644    -247.540    -450.110
  N     -322.306    -249.030    -449.705
  C     -322.698    -250.268    -449.734
  N     -323.944    -250.534    -449.258
  C     -321.861    -251.371    -450.243
  C     -320.655    -251.025    -450.695
  O     -317.154    -252.936    -455.749
  O     -317.533    -254.282    -453.602
  H     -318.047    -247.132    -450.016
  H     -316.614    -253.721    -455.946
  H     -322.224    -252.386    -450.237
  H     -319.969    -251.771    -451.087
  H     -319.056    -248.374    -451.728
  H     -318.389    -249.134    -449.003
  H     -317.251    -251.102    -449.684
  H     -316.405    -249.615    -452.219
  H     -324.491    -249.756    -448.916
  H     -315.396    -251.874    -451.813
  H     -324.344    -251.462    -449.229
  H     -316.995    -252.583    -451.696
  P     -314.734    -250.978    -449.059
  C     -312.763    -251.119    -450.693
  O     -313.944    -251.743    -450.225
  O     -315.858    -252.060    -448.658
  O     -313.930    -250.553    -447.874
  H     -315.466    -252.760    -448.110
  H     -312.221    -251.827    -451.325
  H     -312.124    -250.830    -449.860
  H     -313.017    -250.242    -451.296
  H     -320.472    -251.322    -455.315
  H     -319.586    -252.586    -456.134
  H     -318.840    -251.029    -455.868

 3  4  5  6  7  8  9  10  11  12  13  21  23  27  28  29  30  32 0
 6-311+G(2d,p)
 ****
 34  35 0
 6-311+G(2d,p)
 ****
 1  2  14  15  16  17  18  19  20  22  24  25  26 0
 3-21G
 ****
 31  33  36  37  38  39  40  41  42  43  44  45  46 0
 3-21G
 ****


