%nproc=1
%NoSave
%Mem=1900MB
#P OB98/GEN NMR

erre ene a

0 1
  C      -80.883     210.898     226.495
  O      -79.854     211.783     226.029
  P      -78.867     212.381     227.151
  C      -79.171     214.935     226.732
  O      -78.319     213.804     226.616
  C      -78.865     215.935     225.618
  O      -79.411     215.512     224.342
  C      -79.459     217.320     225.864
  O      -78.716     218.027     226.848
  C      -79.387     217.917     224.449
  O      -78.047     218.380     224.178
  C      -79.718     216.697     223.572
  N      -82.976     218.070     219.887
  C      -81.651     218.256     220.013
  N      -80.849     217.860     221.026
  C      -81.564     217.201     221.975
  C      -82.917     216.929     221.963
  C      -83.647     217.408     220.861
  N      -85.013     217.215     220.719
  N      -83.286     216.229     223.090
  C      -82.172     216.105     223.789
  N      -81.092     216.662     223.138
  O      -77.584     211.427     227.060
  O      -79.460     212.408     228.521
  H      -77.785     218.961     224.928
  H      -77.552     210.855     227.845
  H      -81.163     218.802     219.208
  H      -82.090     215.615     224.751
  H      -79.092     216.672     222.673
  H      -80.071     218.771     224.322
  H      -80.504     217.237     226.177
  H      -77.767     216.014     225.513
  H      -79.037     215.421     227.704
  H      -85.469     217.657     219.929
  H      -85.530     216.805     221.480
  H      -80.209     214.594     226.677
  P      -79.486     219.128     227.728
  C      -77.190     220.245     227.497
  O      -78.304     220.029     228.345
  O      -79.957     218.256     228.985
  O      -80.575     219.862     227.004
  H      -79.235     217.672     229.322
  H      -76.480     220.889     228.024
  H      -77.501     220.743     226.569
  H      -76.702     219.299     227.265
  H      -81.472     210.567     225.665
  H      -81.509     211.414     227.193
  H      -80.436     210.053     226.975

 3  4  5  6  7  8  9  10  11  12  22  25  29  30  31  32 0
 6-311+G(2d,p)
 ****
 33  36  37 0
 6-311+G(2d,p)
 ****
 1  2  13  14  15  16  17  18  19  20  21  23  24  26 0
 3-21G
 ****
 27  28  34  35  38  39  40  41  42  43  44  45  46  47  48 0
 3-21G
 ****


