%nproc=1
%NoSave
%Mem=1900MB
#P OB98/GEN NMR

erre ene a

0 1
  C       17.940     -29.063      70.946
  O       16.860     -28.555      71.705
  H       18.103     -28.407      70.087
  H       17.713     -30.068      70.579
  H       18.852     -29.084      71.549
  P       16.366     -29.385      72.982
  C       14.728     -31.037      71.850
  O       16.004     -30.854      72.453
  C       14.672     -32.370      71.106
  O       15.712     -32.433      70.111
  C       14.876     -33.590      71.997
  O       13.714     -33.852      72.758
  C       15.227     -34.640      70.957
  O       14.049     -35.116      70.287
  C       16.111     -33.819      69.986
  N       17.543     -33.970      70.233
  C       18.247     -34.755      69.312
  O       17.657     -35.284      68.370
  N       19.596     -34.930      69.501
  C       20.198     -34.342      70.486
  N       21.535     -34.554      70.613
  C       19.498     -33.481      71.459
  C       18.184     -33.348      71.281
  O       15.296     -28.745      73.813
  O       17.705     -29.624      73.828
  H       14.363     -35.643      69.526
  H       17.811     -28.929      74.505
  H       20.041     -33.002      72.260
  H       17.596     -32.731      71.952
  H       15.914     -34.112      68.946
  H       15.720     -35.508      71.394
  H       15.746     -33.444      72.648
  H       13.708     -32.423      70.580
  H       21.975     -35.138      69.910
  H       14.582     -30.208      71.148
  H       22.128     -34.026      71.237
  H       13.934     -30.993      72.604
  P       13.801     -34.341      74.284
  C       13.039     -36.754      73.827
  O       14.114     -35.915      74.220
  O       12.638     -33.965      75.137
  O       15.190     -33.733      74.795
  H       15.094     -32.766      74.987
  H       13.365     -37.773      73.821
  H       12.712     -36.479      72.846
  H       12.229     -36.643      74.517

 6  7  8  9  10  11  12  13  14  15  16  26  30  31  32  33  35 0
 6-311+G(2d,p)
 ****
 37  38 0
 6-311+G(2d,p)
 ****
 1  2  3  4  5  17  18  19  20  21  22  23  24  25 0
 3-21G
 ****
 27  28  29  34  36  39  40  41  42  43  44  45  46 0
 3-21G
 ****


