%nproc=1
%NoSave
%Mem=1900MB
#P OB98/GEN NMR

erre ene a

0 1
  C     -453.484    -296.074    -562.139
  O     -453.246    -297.169    -561.266
  P     -454.507    -297.993    -560.724
  C     -452.695    -299.886    -560.422
  O     -453.911    -299.298    -559.986
  C     -452.359    -301.104    -559.562
  O     -451.911    -300.652    -558.245
  C     -453.532    -302.075    -559.326
  O     -452.990    -303.401    -559.294
  C     -454.046    -301.663    -557.964
  O     -454.775    -302.693    -557.323
  C     -452.721    -301.306    -557.255
  N     -452.908    -300.447    -556.087
  C     -453.659    -300.947    -555.025
  O     -454.192    -302.052    -555.027
  N     -453.804    -300.101    -553.949
  C     -453.341    -298.819    -553.860
  O     -453.513    -298.101    -552.885
  C     -452.590    -298.329    -555.033
  C     -452.403    -299.156    -556.058
  O     -455.119    -298.570    -562.084
  O     -455.452    -297.191    -559.894
  H     -454.440    -298.796    -562.740
  H     -454.292    -303.538    -557.459
  H     -454.311    -300.463    -553.151
  H     -452.222    -297.315    -555.008
  H     -451.859    -298.814    -556.947
  H     -452.198    -302.223    -556.958
  H     -454.693    -300.781    -558.058
  H     -454.290    -301.997    -560.117
  H     -451.513    -301.631    -560.022
  H     -451.891    -299.147    -560.334
  H     -452.784    -300.164    -561.477
  P     -453.296    -304.385    -560.533
  C     -450.829    -304.894    -561.220
  O     -452.043    -305.361    -560.687
  O     -453.117    -303.364    -561.762
  O     -454.650    -305.017    -560.498
  H     -452.296    -302.844    -561.702
  H     -450.022    -305.586    -560.937
  H     -450.574    -303.896    -560.838
  H     -450.889    -304.859    -562.311
  H     -452.551    -295.627    -562.413
  H     -454.095    -295.349    -561.643
  H     -453.985    -296.421    -563.018

 3  4  5  6  7  8  9  10  11  12  13  24  28  29  30  31  32 0
 6-311+G(2d,p)
 ****
 33  34 0
 6-311+G(2d,p)
 ****
 1  2  14  15  16  17  18  19  20  21  22  23  25  26  27 0
 3-21G
 ****
 35  36  37  38  39  40  41  42  43  44  45 0
 3-21G
 ****


