%nproc=1
%NoSave
%Mem=1900MB
#P OB98/GEN NMR

erre ene a

0 1
  C       -9.864    -312.312     100.999
  O      -10.474    -313.583     101.266
  P      -10.285    -314.736     100.174
  C       -8.211    -315.871     101.304
  O       -8.729    -315.122     100.213
  C       -8.159    -317.357     100.944
  O       -7.086    -317.616     100.009
  C       -7.894    -318.280     102.120
  O       -9.058    -318.415     102.935
  C       -7.463    -319.553     101.404
  O       -8.612    -320.276     100.933
  C       -6.670    -318.984     100.206
  N       -5.226    -319.089     100.378
  C       -4.567    -319.942      99.479
  O       -5.153    -320.589      98.620
  N       -3.212    -320.043      99.643
  C       -2.466    -319.409     100.602
  O       -1.246    -319.521     100.685
  C       -3.221    -318.563     101.539
  C       -4.541    -318.442     101.385
  O      -10.456    -313.911      98.818
  O      -11.240    -315.870     100.351
  H      -10.091    -313.014      98.875
  H       -8.992    -319.743     100.201
  H       -2.719    -320.644      99.003
  H       -2.666    -318.065     102.323
  H       -5.116    -317.834     102.076
  H       -6.939    -319.522      99.288
  H       -6.901    -320.224     102.051
  H       -7.063    -317.889     102.724
  H       -9.106    -317.615     100.455
  H       -8.853    -315.743     102.182
  H       -7.221    -315.486     101.565
  P       -8.912    -319.325     104.251
  C       -7.514    -317.440     105.437
  O       -7.615    -318.794     105.030
  O       -8.436    -320.716     103.626
  O      -10.160    -319.403     105.075
  H       -7.761    -320.618     102.946
  H       -6.767    -317.368     106.214
  H       -8.473    -317.075     105.814
  H       -7.209    -316.828     104.578
  H      -10.070    -311.641     101.807
  H      -10.261    -311.909     100.091
  H       -8.806    -312.438     100.901

 3  4  5  6  7  8  9  10  11  12  13  24  28  29  30  31  32 0
 6-311+G(2d,p)
 ****
 33  34 0
 6-311+G(2d,p)
 ****
 1  2  14  15  16  17  18  19  20  21  22  23  25  26  27 0
 3-21G
 ****
 35  36  37  38  39  40  41  42  43  44  45 0
 3-21G
 ****


