%nproc=1
%NoSave
%Mem=1900MB
#P OB98/GEN NMR

erre ene a

0 1
  C      260.061     -55.382     297.985
  O      259.485     -55.026     299.239
  P      260.300     -54.395     300.454
  C      260.740     -56.569     301.868
  O      261.251     -55.514     301.050
  C      261.770     -57.653     302.148
  O      262.809     -57.155     303.021
  C      261.114     -58.829     302.936
  O      260.396     -59.824     302.208
  C      262.201     -59.364     303.849
  O      262.903     -60.462     303.273
  C      263.134     -58.163     304.032
  N      264.048     -58.824     309.004
  C      264.176     -59.735     307.975
  N      264.551     -60.995     308.305
  N      263.951     -59.433     306.705
  C      263.487     -58.165     306.528
  C      263.298     -57.184     307.485
  C      263.610     -57.518     308.886
  O      263.534     -56.743     309.821
  N      262.796     -56.018     306.912
  C      262.689     -56.322     305.643
  N      263.078     -57.607     305.358
  O      259.473     -53.614     301.442
  O      261.312     -53.353     299.734
  H      263.641     -60.706     303.899
  H      261.430     -52.603     300.375
  H      264.258     -59.110     309.952
  H      262.301     -55.640     304.879
  H      264.174     -58.440     303.836
  H      261.770     -59.714     304.812
  H      264.645     -61.305     309.258
  H      260.353     -58.387     303.596
  H      264.448     -61.693     307.593
  H      262.263     -57.999     301.242
  H      259.873     -56.983     301.324
  H      260.355     -56.154     302.812
  P      258.798     -59.930     302.057
  C      258.288     -61.915     303.610
  O      258.188     -60.495     303.415
  O      258.580     -61.132     301.014
  O      258.136     -58.666     301.555
  H      257.675     -61.097     300.643
  H      257.583     -62.237     304.391
  H      259.290     -62.163     303.925
  H      258.043     -62.425     302.651
  H      259.303     -55.783     297.345
  H      260.823     -56.117     298.138
  H      260.489     -54.514     297.530

 3  4  5  6  7  8  9  10  11  12  23  26  30  31 0
 6-311+G(2d,p)
 ****
 33  35  36  37  38 0
 6-311+G(2d,p)
 ****
 1  2  13  14  15  16  17  18  19  20  21  22  24  25 0
 3-21G
 ****
 27  28  29  32  34  39  40  41  42  43  44  45  46  47  48  49 0
 3-21G
 ****


