%nproc=1
%NoSave
%Mem=1900MB
#P OB98/GEN NMR

erre ene a

0 1
  C     -217.483    -885.007    1074.871
  O     -218.287    -884.181    1075.703
  P     -218.210    -884.445    1077.287
  C     -216.181    -882.806    1077.479
  O     -217.480    -883.173    1077.927
  C     -215.850    -881.392    1077.955
  O     -216.668    -880.424    1077.262
  C     -216.089    -881.162    1079.446
  O     -214.994    -881.641    1080.197
  C     -216.253    -879.644    1079.498
  O     -214.966    -878.987    1079.492
  C     -217.016    -879.369    1078.191
  N     -221.099    -876.389    1077.821
  C     -219.752    -876.079    1077.741
  N     -219.453    -874.785    1077.474
  N     -218.779    -876.940    1077.891
  C     -219.232    -878.189    1078.170
  C     -220.532    -878.632    1078.292
  C     -221.587    -877.670    1078.069
  O     -222.781    -877.919    1078.031
  N     -220.586    -879.957    1078.597
  C     -219.326    -880.336    1078.624
  N     -218.463    -879.307    1078.357
  O     -217.126    -885.621    1077.408
  O     -219.512    -884.802    1077.934
  H     -214.476    -879.258    1078.697
  H     -217.561    -886.486    1077.504
  H     -221.796    -875.683    1077.670
  H     -218.990    -881.351    1078.823
  H     -216.718    -878.413    1077.738
  H     -216.767    -879.313    1080.404
  H     -220.144    -874.053    1077.359
  H     -217.022    -881.647    1079.765
  H     -218.475    -874.525    1077.415
  H     -214.803    -881.183    1077.702
  H     -216.154    -882.829    1076.387
  H     -215.456    -883.526    1077.872
  P     -215.186    -881.776    1081.782
  C     -215.626    -884.330    1081.599
  O     -214.868    -883.286    1082.190
  O     -216.784    -881.660    1081.975
  O     -214.478    -880.738    1082.586
  H     -216.980    -881.168    1082.800
  H     -215.010    -885.224    1081.534
  H     -215.985    -884.059    1080.601
  H     -216.496    -884.545    1082.235
  H     -217.626    -884.730    1073.848
  H     -217.764    -886.031    1075.006
  H     -216.453    -884.883    1075.133

 3  4  5  6  7  8  9  10  11  12  23  26  30  31 0
 6-311+G(2d,p)
 ****
 33  35  36  37  38 0
 6-311+G(2d,p)
 ****
 1  2  13  14  15  16  17  18  19  20  21  22  24  25 0
 3-21G
 ****
 27  28  29  32  34  39  40  41  42  43  44  45  46  47  48  49 0
 3-21G
 ****


