%nproc=1
%NoSave
%Mem=1900MB
#P OB98/GEN NMR

erre ene a

0 1
  C     -140.670     -39.936      78.563
  O     -139.882     -39.569      79.678
  H     -140.581     -39.159      77.799
  H     -141.723     -40.032      78.844
  H     -140.311     -40.880      78.143
  P     -140.045     -40.416      81.031
  C     -141.543     -38.784      82.360
  O     -141.482     -40.005      81.625
  C     -142.994     -38.382      82.636
  O     -143.687     -38.142      81.394
  C     -143.803     -39.458      83.343
  O     -143.419     -39.684      84.683
  C     -145.236     -39.049      83.030
  O     -145.764     -38.091      83.942
  C     -145.085     -38.409      81.628
  N     -145.662     -39.243      80.581
  C     -147.038     -39.134      80.410
  O     -147.754     -38.407      81.098
  N     -147.584     -39.929      79.440
  C     -146.908     -40.838      78.678
  O     -147.462     -41.553      77.853
  C     -145.458     -40.926      78.923
  C     -144.909     -40.137      79.849
  O     -138.924     -40.291      82.018
  O     -140.283     -41.912      80.516
  H     -145.264     -37.261      83.808
  H     -140.135     -42.566      81.240
  H     -148.578     -39.857      79.295
  H     -144.891     -41.638      78.340
  H     -143.842     -40.186      80.049
  H     -145.594     -37.436      81.601
  H     -145.910     -39.909      83.044
  H     -143.636     -40.408      82.819
  H     -142.991     -37.449      83.210
  H     -141.064     -38.007      81.755
  H     -140.990     -38.892      83.299
  P     -143.301     -41.141      85.327
  C     -145.602     -41.082      86.532
  O     -144.787     -41.713      85.551
  O     -142.295     -41.313      86.419
  O     -142.792     -42.006      84.063
  H     -142.197     -42.701      84.403
  H     -146.555     -41.566      86.569
  H     -145.735     -40.052      86.276
  H     -145.128     -41.153      87.489

 6  7  8  9  10  11  12  13  14  15  16  26  31  32  33  34  35 0
 6-311+G(2d,p)
 ****
 36  37 0
 6-311+G(2d,p)
 ****
 1  2  3  4  5  17  18  19  20  21  22  23  24  25 0
 3-21G
 ****
 27  28  29  30  38  39  40  41  42  43  44  45 0
 3-21G
 ****


