%nproc=1
%NoSave
%Mem=1900MB
#P OB98/GEN NMR

erre ene a

0 1
  C      520.291      58.989     231.502
  O      521.164      59.921     230.896
  H      520.022      59.357     232.495
  H      520.772      58.010     231.606
  H      519.376      58.890     230.906
  P      521.922      59.481     229.547
  C      523.861      58.640     231.027
  O      522.939      58.316     229.990
  C      525.151      57.831     230.896
  O      526.002      58.032     232.046
  C      524.937      56.323     230.834
  O      524.275      55.870     229.673
  C      526.324      55.799     231.157
  O      527.185      55.776     230.018
  C      526.822      56.852     232.178
  N      526.811      56.346     233.544
  C      527.945      55.631     233.942
  O      528.898      55.402     233.198
  N      527.933      55.153     235.222
  C      526.902      55.274     236.115
  O      526.947      54.805     237.243
  C      525.718      56.006     235.630
  C      525.731      56.500     234.390
  O      522.572      60.591     228.772
  O      520.801      58.689     228.722
  H      528.077      55.562     230.343
  H      521.068      58.581     227.774
  H      528.746      54.645     235.530
  H      524.885      56.114     236.301
  H      524.870      57.048     234.008
  H      527.849      57.156     231.938
  H      526.296      54.782     231.556
  H      524.290      56.038     231.673
  H      525.691      58.190     230.015
  H      523.382      58.413     231.982
  H      524.079      59.712     230.992
  P      523.280      54.623     229.648
  C      525.197      52.940     229.045
  O      524.131      53.285     229.924
  O      522.268      54.596     228.546
  O      522.489      54.810     231.039
  H      521.574      54.491     230.892
  H      525.650      52.029     229.375
  H      525.927      53.722     229.046
  H      524.814      52.810     228.054

 6  7  8  9  10  11  12  13  14  15  16  26  31  32  33  34  35 0
 6-311+G(2d,p)
 ****
 36  37 0
 6-311+G(2d,p)
 ****
 1  2  3  4  5  17  18  19  20  21  22  23  24  25 0
 3-21G
 ****
 27  28  29  30  38  39  40  41  42  43  44  45 0
 3-21G
 ****


