%nproc=1
%NoSave
%Mem=1900MB
#P OB98/GEN NMR

erre ene a

0 1
  C      -34.917    -689.787    -539.752
  O      -35.612    -690.490    -538.728
  P      -37.160    -690.114    -538.484
  C      -38.176    -692.376    -537.713
  O      -37.705    -691.089    -537.336
  C      -37.943    -693.396    -536.599
  O      -36.505    -693.603    -536.446
  C      -38.485    -692.984    -535.217
  O      -38.932    -694.169    -534.569
  C      -37.258    -692.406    -534.545
  O      -37.363    -692.287    -533.129
  C      -36.205    -693.388    -535.052
  N      -32.407    -692.477    -531.720
  C      -33.624    -693.061    -531.576
  N      -34.573    -693.277    -532.503
  C      -34.162    -692.814    -533.706
  C      -32.982    -692.192    -534.006
  C      -32.064    -692.018    -532.945
  N      -30.831    -691.411    -533.097
  N      -32.925    -691.854    -535.346
  C      -34.082    -692.259    -535.837
  N      -34.841    -692.865    -534.899
  O      -37.884    -690.665    -539.812
  O      -37.428    -688.655    -538.265
  H      -36.475    -692.214    -532.736
  H      -38.580    -690.064    -540.111
  H      -33.868    -693.403    -530.567
  H      -34.391    -692.120    -536.867
  H      -36.249    -694.348    -534.538
  H      -37.066    -691.402    -534.924
  H      -39.329    -692.281    -535.286
  H      -38.379    -694.356    -536.912
  H      -37.643    -692.709    -538.606
  H      -30.348    -691.157    -532.258
  H      -30.677    -690.903    -533.962
  H      -39.245    -692.310    -537.969
  P      -40.491    -694.340    -534.238
  C      -40.207    -696.855    -533.750
  O      -40.548    -695.588    -533.208
  O      -41.033    -695.024    -535.583
  O      -41.221    -693.100    -533.833
  H      -40.483    -695.792    -535.845
  H      -40.177    -697.586    -532.926
  H      -39.230    -696.820    -534.228
  H      -40.973    -697.170    -534.479
  H      -33.907    -690.136    -539.802
  H      -34.922    -688.740    -539.532
  H      -35.400    -689.956    -540.692

 3  4  5  6  7  8  9  10  11  12  22  25  29  30  31  32 0
 6-311+G(2d,p)
 ****
 33  36  37 0
 6-311+G(2d,p)
 ****
 1  2  13  14  15  16  17  18  19  20  21  23  24  26 0
 3-21G
 ****
 27  28  34  35  38  39  40  41  42  43  44  45  46  47  48 0
 3-21G
 ****


