%nproc=1
%NoSave
%Mem=1900MB
#P OB98/GEN NMR

erre ene a

0 1
  C       88.778    -246.551    -104.926
  O       88.013    -247.435    -105.724
  P       86.871    -246.862    -106.691
  C       88.391    -246.197    -108.701
  O       87.567    -245.769    -107.636
  C       87.564    -246.483    -109.961
  O       86.889    -245.256    -110.335
  C       88.381    -246.897    -111.181
  O       87.505    -247.522    -112.123
  C       88.835    -245.558    -111.723
  O       89.228    -245.631    -113.091
  C       87.614    -244.645    -111.427
  N       88.036    -243.279    -111.065
  C       88.325    -242.409    -112.116
  O       88.170    -242.712    -113.298
  N       88.879    -241.209    -111.763
  C       89.205    -240.835    -110.488
  O       89.966    -239.913    -110.223
  C       88.661    -241.685    -109.419
  C       88.133    -242.865    -109.751
  O       85.973    -245.991    -105.696
  O       86.071    -247.898    -107.402
  H       88.454    -245.977    -113.591
  H       85.202    -246.512    -105.394
  H       89.221    -240.640    -112.528
  H       88.766    -241.347    -108.396
  H       87.770    -243.539    -108.975
  H       86.952    -244.575    -112.300
  H       89.705    -245.215    -111.146
  H       89.226    -247.553    -110.955
  H       86.799    -247.233    -109.732
  H       88.943    -247.088    -108.391
  H       89.141    -245.431    -108.931
  P       88.162    -248.439    -113.263
  C       88.122    -250.589    -111.856
  O       88.932    -249.623    -112.501
  O       88.957    -247.725    -114.306
  O       86.895    -249.192    -113.894
  H       87.125    -249.544    -114.775
  H       88.657    -251.544    -111.843
  H       87.170    -250.724    -112.378
  H       87.934    -250.275    -110.828
  H       89.486    -247.111    -104.351
  H       88.129    -246.013    -104.267
  H       89.298    -245.860    -105.557

 3  4  5  6  7  8  9  10  11  12  13  23  28  29  30  31  32 0
 6-311+G(2d,p)
 ****
 33  34 0
 6-311+G(2d,p)
 ****
 1  2  14  15  16  17  18  19  20  21  22  24  25  26  27 0
 3-21G
 ****
 35  36  37  38  39  40  41  42  43  44  45 0
 3-21G
 ****


