%nproc=1
%NoSave
%Mem=1900MB
#P OB98/GEN NMR

erre ene a

0 1
  C      -18.095     -70.081      94.610
  O      -18.390     -68.696      94.522
  P      -19.502     -68.103      95.515
  C      -21.399     -68.545      93.781
  O      -20.722     -67.603      94.595
  C      -22.673     -67.931      93.194
  O      -23.286     -68.898      92.300
  C      -23.736     -67.538      94.231
  O      -24.421     -66.393      93.712
  C      -24.668     -68.737      94.236
  O      -25.962     -68.418      94.741
  C      -24.638     -69.122      92.760
  N      -28.143     -72.264      90.901
  C      -28.161     -70.885      91.019
  N      -29.246     -70.255      90.512
  N      -27.207     -70.188      91.575
  C      -26.181     -70.955      92.022
  C      -26.064     -72.325      92.000
  C      -27.109     -73.081      91.345
  O      -27.093     -74.291      91.142
  N      -24.920     -72.742      92.626
  C      -24.307     -71.623      92.955
  N      -25.010     -70.511      92.566
  O      -18.836     -66.744      96.028
  O      -19.919     -69.002      96.637
  H      -25.860     -68.140      95.675
  H      -18.362     -66.882      96.874
  H      -28.897     -72.742      90.445
  H      -23.358     -71.553      93.463
  H      -25.312     -68.508      92.148
  H      -24.247     -69.533      94.861
  H      -30.003     -70.726      90.042
  H      -23.319     -67.321      95.220
  H      -29.271     -69.241      90.556
  H      -22.391     -67.063      92.589
  H      -21.680     -69.408      94.395
  H      -20.730     -68.890      92.983
  P      -24.291     -65.011      94.519
  C      -26.726     -65.232      95.384
  O      -25.768     -64.430      94.720
  O      -23.654     -64.022      93.431
  O      -23.438     -65.080      95.745
  H      -23.082     -63.370      93.876
  H      -27.509     -64.587      95.792
  H      -26.276     -65.801      96.207
  H      -27.177     -65.928      94.670
  H      -17.341     -70.331      93.893
  H      -18.980     -70.648      94.409
  H      -17.741     -70.309      95.594

 3  4  5  6  7  8  9  10  11  12  23  26  30  31 0
 6-311+G(2d,p)
 ****
 33  35  36  37  38 0
 6-311+G(2d,p)
 ****
 1  2  13  14  15  16  17  18  19  20  21  22  24  25 0
 3-21G
 ****
 27  28  29  32  34  39  40  41  42  43  44  45  46  47  48  49 0
 3-21G
 ****


