%nproc=1
%NoSave
%Mem=1900MB
#P OB98/GEN NMR

erre ene a

0 1
  C     -225.101     -92.800    -150.224
  O     -223.815     -93.217    -149.813
  H     -225.785     -92.789    -149.371
  H     -225.030     -91.787    -150.628
  H     -225.485     -93.464    -151.002
  P     -223.695     -94.693    -149.193
  C     -223.622     -93.885    -146.723
  O     -224.335     -94.601    -147.723
  C     -223.323     -94.807    -145.548
  O     -224.527     -95.048    -144.784
  C     -222.806     -96.186    -145.947
  O     -221.420     -96.173    -146.240
  C     -223.093     -96.968    -144.677
  O     -222.100     -96.659    -143.679
  C     -224.458     -96.403    -144.263
  N     -228.208     -99.666    -143.050
  C     -227.232     -99.099    -142.310
  N     -226.269     -98.246    -142.710
  C     -226.378     -97.983    -144.021
  C     -227.316     -98.491    -144.904
  C     -228.275     -99.369    -144.368
  N     -229.265     -99.959    -145.122
  N     -227.090     -98.019    -146.184
  C     -226.052     -97.216    -146.064
  N     -225.579     -97.168    -144.779
  O     -222.130     -94.852    -148.898
  O     -224.233     -95.797    -150.040
  H     -222.056     -95.687    -143.622
  H     -221.897     -95.796    -148.827
  H     -227.221     -99.373    -141.258
  H     -225.609     -96.650    -146.872
  H     -224.576     -96.345    -143.175
  H     -223.070     -98.049    -144.826
  H     -223.389     -96.612    -146.771
  H     -222.607     -94.299    -144.889
  H     -224.233     -93.045    -146.379
  H     -229.779    -100.708    -144.685
  H     -229.227     -99.860    -146.127
  H     -222.692     -93.500    -147.151
  P     -220.872     -97.292    -147.251
  C     -220.573     -98.934    -145.255
  O     -221.150     -98.701    -146.536
  O     -219.284     -97.128    -147.150
  O     -221.369     -97.166    -148.654
  H     -218.851     -97.432    -147.971
  H     -220.847     -99.910    -144.912
  H     -220.931     -98.200    -144.564
  H     -219.507     -98.867    -145.326

 6  7  8  9  10  11  12  13  14  15  25  28  32  33  34  35 0
 6-311+G(2d,p)
 ****
 36  39  40 0
 6-311+G(2d,p)
 ****
 1  2  3  4  5  16  17  18  19  20  21  22  23  24 0
 3-21G
 ****
 26  27  29  30  31  37  38  41  42  43  44  45  46  47 0
 3-21G
 ****
 48 0
 3-21G
 ****


