%nproc=1
%NoSave
%Mem=1900MB
#P OB98/GEN NMR

erre ene a

0 1
  C      846.987      74.136     342.552
  O      847.953      73.662     343.473
  H      845.987      73.961     342.972
  H      847.070      73.586     341.610
  H      847.116      75.208     342.375
  P      849.482      73.977     343.137
  C      849.942      71.420     342.737
  O      850.036      72.754     342.253
  C      849.620      70.464     341.598
  O      848.347      70.784     340.997
  C      850.593      70.550     340.423
  O      851.851      69.988     340.725
  C      849.815      69.771     339.365
  O      849.932      68.350     339.570
  C      848.364      70.250     339.641
  N      847.911      71.238     338.663
  C      847.522      70.718     337.420
  O      847.563      69.497     337.210
  N      847.117      71.591     336.447
  C      847.081      72.867     336.690
  N      846.680      73.683     335.677
  C      847.456      73.455     337.993
  C      847.872      72.586     338.919
  O      850.207      73.747     344.548
  O      849.739      75.315     342.520
  H      850.852      68.122     339.355
  H      850.023      72.877     344.944
  H      847.410      74.514     338.145
  H      848.164      72.932     339.912
  H      847.673      69.395     339.620
  H      850.181      69.977     338.358
  H      850.693      71.584     340.078
  H      849.560      69.447     341.998
  H      846.450      73.247     334.789
  H      849.198      71.345     343.531
  H      846.654      74.681     335.733
  H      850.913      71.162     343.176
  P      853.101      70.940     341.095
  C      854.471      69.601     339.368
  O      854.076      70.902     339.822
  O      853.756      70.647     342.399
  O      852.481      72.416     340.994
  H      852.117      72.645     340.116
  H      855.116      69.700     338.520
  H      853.602      69.041     339.092
  H      854.990      69.092     340.153

 6  7  8  9  10  11  12  13  14  15  16  26  30  31  32  33  35 0
 6-311+G(2d,p)
 ****
 37  38 0
 6-311+G(2d,p)
 ****
 1  2  3  4  5  17  18  19  20  21  22  23  24  25 0
 3-21G
 ****
 27  28  29  34  36  39  40  41  42  43  44  45  46 0
 3-21G
 ****


