%nproc=1
%NoSave
%Mem=1900MB
#P OB98/GEN NMR

erre ene a

0 1
  C      323.304    -363.527     124.539
  O      322.216    -363.158     123.717
  H      323.965    -362.664     124.651
  H      323.869    -364.340     124.078
  H      322.955    -363.830     125.532
  P      321.013    -364.198     123.517
  C      319.713    -363.668     125.682
  O      319.734    -363.583     124.261
  C      318.275    -363.548     126.184
  O      317.767    -362.218     125.937
  C      317.303    -364.501     125.501
  O      317.440    -365.816     125.993
  C      315.975    -363.829     125.826
  O      315.544    -364.168     127.154
  C      316.342    -362.336     125.723
  N      315.946    -361.737     124.450
  C      314.586    -361.493     124.275
  O      313.734    -361.782     125.113
  N      314.232    -360.925     123.079
  C      315.065    -360.689     122.026
  O      314.682    -360.263     120.940
  C      316.487    -360.989     122.257
  C      316.855    -361.491     123.440
  O      321.321    -365.619     123.856
  O      320.634    -364.040     121.967
  H      315.471    -365.141     127.177
  H      320.974    -364.809     121.471
  H      313.249    -360.752     122.932
  H      317.181    -360.803     121.448
  H      317.896    -361.725     123.625
  H      315.860    -361.770     126.533
  H      315.180    -364.135     125.142
  H      317.453    -364.474     124.414
  H      318.277    -363.711     127.274
  H      320.312    -362.849     126.092
  H      320.152    -364.623     125.986
  P      317.695    -367.025     124.976
  C      320.230    -367.236     125.365
  O      318.954    -367.861     125.512
  O      317.755    -366.647     123.533
  O      316.467    -368.016     125.249
  H      315.944    -368.123     124.431
  H      320.990    -367.881     125.754
  H      320.238    -366.311     125.902
  H      320.418    -367.048     124.328

 6  7  8  9  10  11  12  13  14  15  16  26  31  32  33  34  35 0
 6-311+G(2d,p)
 ****
 36  37 0
 6-311+G(2d,p)
 ****
 1  2  3  4  5  17  18  19  20  21  22  23  24  25 0
 3-21G
 ****
 27  28  29  30  38  39  40  41  42  43  44  45 0
 3-21G
 ****


