%nproc=1
%NoSave
%Mem=1900MB
#P OB98/GEN NMR

erre ene a

0 1
  C      -11.469       2.811     -26.261
  O      -11.687       3.522     -25.040
  P      -10.385       4.168     -24.357
  C      -10.452       2.622     -22.279
  O      -10.503       3.953     -22.769
  C      -11.372       2.436     -21.068
  O      -10.938       3.263     -19.949
  C      -12.836       2.794     -21.345
  O      -13.641       1.897     -20.567
  C      -12.955       4.192     -20.768
  O      -14.315       4.547     -20.531
  C      -12.084       4.034     -19.524
  N      -13.732       8.409     -17.619
  C      -14.431       7.381     -18.221
  N      -15.772       7.516     -18.280
  N      -13.864       6.314     -18.720
  C      -12.519       6.297     -18.554
  C      -11.716       7.244     -17.963
  C      -12.354       8.435     -17.444
  O      -11.782       9.371     -16.898
  N      -10.397       6.853     -17.957
  C      -10.408       5.702     -18.608
  N      -11.671       5.297     -18.940
  O      -10.615       5.740     -24.550
  O       -9.101       3.715     -24.968
  H      -14.349       5.520     -20.410
  H      -10.087       6.067     -25.301
  H      -14.217       9.216     -17.267
  H       -9.537       5.113     -18.841
  H      -12.596       3.479     -18.726
  H      -12.522       4.924     -21.459
  H      -16.277       8.289     -17.871
  H      -13.124       2.743     -22.399
  H      -16.312       6.759     -18.679
  H      -11.303       1.390     -20.745
  H       -9.429       2.370     -21.991
  H      -10.718       1.934     -23.088
  P      -14.612       0.894     -21.349
  C      -16.788       1.773     -20.260
  O      -15.911       0.679     -20.440
  O      -13.845      -0.510     -21.241
  O      -14.864       1.255     -22.777
  H      -13.943      -1.000     -22.079
  H      -17.790       1.391     -20.051
  H      -16.832       2.409     -21.148
  H      -16.452       2.369     -19.408
  H      -12.401       2.427     -26.622
  H      -10.793       2.000     -26.086
  H      -11.050       3.473     -26.990

 3  4  5  6  7  8  9  10  11  12  23  26  30  31 0
 6-311+G(2d,p)
 ****
 33  35  36  37  38 0
 6-311+G(2d,p)
 ****
 1  2  13  14  15  16  17  18  19  20  21  22  24  25 0
 3-21G
 ****
 27  28  29  32  34  39  40  41  42  43  44  45  46  47  48  49 0
 3-21G
 ****


