%nproc=1
%NoSave
%Mem=1900MB
#P OB98/GEN NMR

erre ene a

0 1
  C      286.387       3.912    -231.248
  O      286.505       5.166    -230.605
  H      287.187       3.250    -230.909
  H      285.425       3.468    -230.977
  H      286.429       4.026    -232.334
  P      287.692       6.130    -231.090
  C      286.262       8.272    -231.411
  O      287.273       7.619    -230.655
  C      285.696       9.458    -230.631
  O      284.708       8.961    -229.685
  C      286.747      10.254    -229.839
  O      286.418      11.644    -229.921
  C      286.537       9.781    -228.412
  O      286.961      10.737    -227.448
  C      285.034       9.521    -228.401
  N      282.751       9.261    -223.864
  C      282.734      10.203    -224.830
  N      283.331      10.169    -226.038
  C      283.940       8.988    -226.234
  C      284.038       7.929    -225.347
  C      283.417       8.106    -224.098
  N      283.486       7.181    -223.081
  N      284.795       6.911    -225.893
  C      285.170       7.361    -227.077
  N      284.679       8.611    -227.325
  O      287.503       6.135    -232.681
  O      289.066       5.707    -230.692
  H      286.604      11.613    -227.694
  H      287.993       5.389    -233.072
  H      282.178      11.110    -224.598
  H      285.812       6.839    -227.770
  H      284.448      10.438    -228.264
  H      287.098       8.853    -228.248
  H      287.773      10.096    -230.187
  H      285.165      10.112    -231.334
  H      285.453       7.562    -231.614
  H      283.104       7.439    -222.185
  H      284.069       6.366    -223.202
  H      286.684       8.608    -232.363
  P      287.524      12.696    -229.429
  C      287.733      13.718    -231.814
  O      287.514      13.949    -230.426
  O      288.904      11.961    -229.768
  O      287.427      13.040    -227.978
  H      289.584      12.199    -229.113
  H      287.696      14.649    -232.341
  H      286.974      13.065    -232.191
  H      288.693      13.267    -231.953

 6  7  8  9  10  11  12  13  14  15  25  28  32  33  34  35 0
 6-311+G(2d,p)
 ****
 36  39  40 0
 6-311+G(2d,p)
 ****
 1  2  3  4  5  16  17  18  19  20  21  22  23  24 0
 3-21G
 ****
 26  27  29  30  31  37  38  41  42  43  44  45  46  47 0
 3-21G
 ****
 48 0
 3-21G
 ****


