%nproc=1
%NoSave
%Mem=1900MB
#P OB98/GEN NMR

erre ene a

0 1
  C       -3.286    -260.098      18.640
  O       -3.390    -259.021      17.734
  H       -4.057    -259.986      19.405
  H       -2.305    -260.081      19.124
  H       -3.430    -261.056      18.135
  P       -2.602    -259.102      16.344
  C       -0.566    -257.891      17.369
  O       -1.036    -259.044      16.685
  C        0.907    -257.625      17.037
  O        1.710    -258.719      17.549
  C        1.142    -257.572      15.524
  O        2.251    -256.745      15.181
  C        1.478    -259.015      15.185
  O        2.221    -259.148      13.974
  C        2.246    -259.446      16.432
  N        3.506    -264.133      14.870
  C        3.618    -262.930      14.201
  N        4.137    -262.984      12.952
  N        3.234    -261.784      14.700
  C        2.669    -261.891      15.927
  C        2.482    -263.027      16.680
  C        2.942    -264.285      16.130
  O        2.846    -265.382      16.671
  N        1.864    -262.742      17.872
  C        1.674    -261.438      17.839
  N        2.168    -260.872      16.688
  O       -2.863    -257.668      15.678
  O       -3.014    -260.215      15.430
  H        3.155    -258.964      14.184
  H       -2.739    -257.715      14.714
  H        3.843    -264.981      14.452
  H        1.202    -260.858      18.621
  H        3.308    -259.187      16.341
  H        0.541    -259.562      15.051
  H        4.257    -263.859      12.465
  H        0.266    -257.235      14.974
  H        3.938    -262.184      12.344
  H        1.249    -256.717      17.545
  H       -0.691    -258.081      18.437
  H       -1.180    -257.025      17.119
  P        2.002    -255.176      14.975
  C        1.609    -255.228      12.359
  O        1.139    -254.933      13.655
  O        3.447    -254.609      14.599
  O        1.421    -254.483      16.169
  H        3.763    -253.997      15.291
  H        0.855    -254.981      11.641
  H        1.837    -256.271      12.291
  H        2.491    -254.656      12.161

 6  7  8  9  10  11  12  13  14  15  26  29  33  34 0
 6-311+G(2d,p)
 ****
 36  38  39  40  41 0
 6-311+G(2d,p)
 ****
 1  2  3  4  5  16  17  18  19  20  21  22  23  24  25 0
 3-21G
 ****
 27  28  30  31  32  35  37  42  43  44  45  46  47 0
 3-21G
 ****
 48  49 0
 3-21G
 ****


