%nproc=1
%NoSave
%Mem=1900MB
#P OB98/GEN NMR

erre ene a

0 1
  C      230.478    -153.983     182.594
  O      231.554    -153.102     182.856
  H      230.754    -154.980     182.955
  H      230.287    -154.033     181.527
  H      229.580    -153.658     183.127
  P      231.326    -151.555     182.495
  C      232.425    -150.672     184.675
  O      232.478    -150.734     183.251
  C      233.817    -150.819     185.281
  O      234.385    -152.097     184.845
  C      234.800    -149.710     184.880
  O      235.660    -149.457     185.996
  C      235.632    -150.370     183.782
  O      236.892    -149.738     183.597
  C      235.703    -151.796     184.328
  N      239.692    -153.662     181.874
  C      239.622    -152.740     182.901
  N      240.787    -152.223     183.348
  N      238.493    -152.349     183.448
  C      237.397    -152.964     182.924
  C      237.329    -153.878     181.911
  C      238.586    -154.292     181.299
  O      238.711    -155.085     180.375
  N      236.030    -154.242     181.654
  C      235.323    -153.545     182.505
  N      236.104    -152.743     183.310
  O      230.002    -151.201     183.315
  O      231.184    -151.247     181.035
  H      237.432    -150.316     183.006
  H      229.211    -151.308     182.751
  H      240.585    -153.914     181.485
  H      234.241    -153.579     182.604
  H      236.421    -151.894     185.149
  H      235.084    -150.336     182.831
  H      241.696    -152.514     183.007
  H      234.325    -148.779     184.557
  H      240.756    -151.577     184.127
  H      233.719    -150.880     186.375
  H      231.780    -151.487     185.042
  H      231.982    -149.714     184.975
  P      235.204    -148.355     187.071
  C      236.759    -148.816     189.102
  O      236.477    -147.985     187.986
  O      234.281    -149.209     188.074
  O      234.460    -147.195     186.499
  H      233.615    -148.627     188.486
  H      237.626    -148.449     189.610
  H      236.939    -149.816     188.766
  H      235.924    -148.810     189.771

 6  7  8  9  10  11  12  13  14  15  26  29  33  34 0
 6-311+G(2d,p)
 ****
 36  38  39  40  41 0
 6-311+G(2d,p)
 ****
 1  2  3  4  5  16  17  18  19  20  21  22  23  24  25 0
 3-21G
 ****
 27  28  30  31  32  35  37  42  43  44  45  46  47 0
 3-21G
 ****
 48  49 0
 3-21G
 ****


