%nproc=1
%NoSave
%Mem=1900MB
#P OB98/GEN NMR

erre ene a

0 1
  C     -178.505    -291.614      47.627
  O     -179.534    -292.528      47.236
  P     -179.701    -293.854      48.138
  C     -182.260    -293.786      48.610
  O     -181.190    -294.406      47.906
  C     -183.606    -294.301      48.100
  O     -183.688    -294.218      46.669
  C     -183.881    -295.761      48.432
  O     -184.328    -295.922      49.769
  C     -185.000    -296.081      47.447
  O     -186.263    -295.639      47.985
  C     -184.611    -295.243      46.221
  N     -185.343    -298.018      42.044
  C     -186.258    -297.382      42.855
  N     -187.558    -297.475      42.485
  N     -185.939    -296.712      43.931
  C     -184.605    -296.678      44.163
  C     -183.598    -297.268      43.435
  C     -183.969    -298.034      42.262
  O     -183.197    -298.642      41.531
  N     -182.361    -297.003      43.976
  C     -182.621    -296.231      45.013
  N     -183.968    -296.017      45.173
  O     -179.752    -293.268      49.625
  O     -178.602    -294.845      47.960
  H     -186.522    -296.284      48.673
  H     -179.432    -293.940      50.262
  H     -185.646    -298.528      41.231
  H     -181.877    -295.797      45.667
  H     -185.476    -294.727      45.786
  H     -185.098    -297.154      47.253
  H     -187.868    -297.914      41.627
  H     -183.006    -296.387      48.214
  H     -188.242    -296.985      43.046
  H     -184.395    -293.665      48.530
  H     -182.213    -292.702      48.474
  H     -182.141    -293.982      49.679
  P     -183.672    -297.112      50.622
  C     -183.433    -295.811      52.855
  O     -184.096    -296.838      52.147
  O     -182.109    -296.769      50.586
  O     -183.956    -298.482      50.095
  H     -181.579    -297.587      50.659
  H     -183.307    -294.920      52.236
  H     -182.452    -296.170      53.187
  H     -184.030    -295.549      53.732
  H     -178.494    -290.781      46.956
  H     -177.557    -292.109      47.596
  H     -178.694    -291.268      48.622

 3  4  5  6  7  8  9  10  11  12  23  26  30  31  33  0
 6-311+G(2d,p)
 ****
 35  36  37  38 0
 6-311+G(2d,p)
 ****
 1  2  13  14  15  16  17  18  19  20  21  22  24  25  27  28  29 0
 3-21G
 ****
 32  34  39  40  41  42  43  44  45  46  47  48  49 0
 3-21G
 ****


