%nproc=1
%NoSave
%Mem=1900MB
#P OB98/GEN NMR

erre ene a

0 1
  C     -310.675     587.653      66.670
  O     -310.231     588.911      67.143
  H     -310.672     587.672      65.577
  H     -311.695     587.460      67.011
  H     -310.010     586.856      67.009
  P     -310.047     589.122      68.726
  C     -307.481     589.222      68.813
  O     -308.690     589.960      68.923
  C     -306.297     590.168      68.608
  O     -306.331     590.670      67.250
  C     -306.300     591.372      69.556
  O     -304.951     591.656      69.928
  C     -306.836     592.498      68.689
  O     -306.388     593.779      69.128
  C     -306.314     592.113      67.308
  N     -307.851     596.429      65.182
  C     -306.948     596.209      66.202
  N     -306.381     597.304      66.760
  N     -306.626     595.021      66.640
  C     -307.253     594.015      65.983
  C     -308.170     594.103      64.967
  C     -308.528     595.426      64.496
  O     -309.338     595.682      63.606
  N     -308.611     592.857      64.579
  C     -307.953     592.023      65.368
  N     -307.133     592.677      66.245
  O     -310.134     587.879      69.551
  O     -311.189     590.175      69.109
  H     -306.639     593.868      70.069
  H     -311.956     589.721      69.505
  H     -308.070     597.368      64.892
  H     -308.049     590.946      65.350
  H     -305.286     592.452      67.138
  H     -307.935     592.492      68.714
  H     -306.567     598.246      66.463
  H     -306.910     591.215      70.448
  H     -305.695     597.165      67.496
  H     -305.369     589.590      68.710
  H     -307.565     588.548      67.960
  H     -307.333     588.630      69.722
  P     -304.661     592.263      71.385
  C     -304.231     589.925      72.375
  O     -303.720     591.233      72.177
  O     -305.863     592.731      72.139
  O     -303.664     593.482      71.075
  H     -303.799     594.176      71.746
  H     -303.514     589.339      72.911
  H     -304.425     589.470      71.426
  H     -305.140     589.978      72.937

 6  7  8  9  10  11  12  13  14  15  26  29  33  34 0
 6-311+G(2d,p)
 ****
 36  38  39  40  41 0
 6-311+G(2d,p)
 ****
 1  2  3  4  5  16  17  18  19  20  21  22  23  24  25 0
 3-21G
 ****
 27  28  30  31  32  35  37  42  43  44  45  46  47 0
 3-21G
 ****
 48  49 0
 3-21G
 ****


