%nproc=1
%NoSave
%Mem=1900MB
#P OB98/GEN NMR

erre ene a

0 1
  C       54.551     -98.336    -166.925
  O       53.683     -98.904    -167.891
  P       52.106     -98.699    -167.677
  C       51.506    -101.219    -167.912
  O       51.566    -100.077    -167.063
  C       51.078    -102.450    -167.118
  O       52.135    -102.858    -166.232
  C       49.865    -102.223    -166.232
  O       48.677    -102.236    -167.000
  C       49.984    -103.387    -165.256
  O       49.361    -104.569    -165.783
  C       51.515    -103.575    -165.142
  N       52.035    -103.142    -163.855
  C       53.420    -103.265    -163.685
  O       54.114    -103.737    -164.587
  N       53.971    -102.890    -162.485
  C       53.206    -102.435    -161.541
  N       53.808    -102.073    -160.375
  C       51.742    -102.308    -161.674
  C       51.227    -102.681    -162.844
  O       51.533     -98.703    -169.169
  O       51.733     -97.462    -166.927
  H       49.556    -104.564    -166.743
  H       50.700     -98.197    -169.222
  H       51.151    -101.923    -160.856
  H       50.160    -102.622    -163.026
  H       51.780    -104.631    -165.277
  H       49.497    -103.170    -164.301
  H       49.958    -101.274    -165.689
  H       50.889    -103.267    -167.827
  H       54.814    -102.178    -160.312
  H       52.496    -101.402    -168.341
  H       53.305    -101.688    -159.590
  H       50.804    -101.019    -168.727
  P       47.338    -101.700    -166.306
  C       46.263    -104.014    -166.575
  O       46.657    -103.003    -165.668
  O       46.395    -101.415    -167.570
  O       47.459    -100.509    -165.416
  H       45.569    -100.986    -167.279
  H       45.964    -104.898    -166.007
  H       47.093    -104.281    -167.234
  H       45.411    -103.671    -167.168
  H       55.566     -98.547    -167.189
  H       54.338     -98.755    -165.964
  H       54.404     -97.277    -166.893

 3  4  5  6  7  8  9  10  11  12  13  21  23  27  28  29  30  32 0
 6-311+G(2d,p)
 ****
 34  35 0
 6-311+G(2d,p)
 ****
 1  2  14  15  16  17  18  19  20  22  24  25  26 0
 3-21G
 ****
 31  33  36  37  38  39  40  41  42  43  44  45  46 0
 3-21G
 ****


