%nproc=1
%NoSave
%Mem=1900MB
#P OB98/GEN NMR

erre ene a

0 1
  C      590.894     -56.198    -677.377
  O      589.822     -56.425    -678.268
  H      590.498     -56.145    -676.360
  H      591.377     -55.245    -677.611
  H      591.624     -57.009    -677.427
  P      590.146     -56.724    -679.806
  C      589.723     -59.256    -679.501
  O      590.644     -58.245    -679.888
  C      590.314     -60.648    -679.733
  O      590.361     -60.900    -681.168
  C      591.750     -60.826    -679.193
  O      591.894     -62.204    -678.830
  C      592.563     -60.489    -680.434
  O      593.920     -60.834    -680.303
  C      591.728     -61.241    -681.484
  N      592.036     -60.913    -682.875
  C      592.835     -61.797    -683.584
  O      593.296     -62.840    -683.134
  N      593.106     -61.443    -684.885
  C      592.648     -60.327    -685.524
  O      592.895     -60.077    -686.698
  C      591.815     -59.427    -684.713
  C      591.549     -59.755    -683.451
  O      591.028     -55.733    -680.488
  O      588.698     -56.791    -680.491
  H      588.519     -55.956    -680.961
  H      594.339     -60.225    -679.652
  H      593.674     -62.078    -685.417
  H      591.449     -58.522    -685.187
  H      590.928     -59.113    -682.832
  H      591.836     -62.322    -681.342
  H      592.542     -59.416    -680.612
  H      591.963     -60.192    -678.333
  H      589.637     -61.397    -679.302
  H      588.813     -59.137    -680.101
  H      589.468     -59.123    -678.442
  P      591.700     -62.749    -677.332
  C      589.822     -64.161    -678.409
  O      590.266     -63.478    -677.247
  O      591.904     -61.708    -676.279
  O      592.757     -63.944    -677.175
  H      592.993     -64.045    -676.235
  H      588.863     -64.598    -678.221
  H      590.522     -64.931    -678.660
  H      589.746     -63.469    -679.222

 6  7  8  9  10  11  12  13  14  15  16  27  31  32  33  34  35 0
 6-311+G(2d,p)
 ****
 36  37 0
 6-311+G(2d,p)
 ****
 1  2  3  4  5  17  18  19  20  21  22  23  24  25 0
 3-21G
 ****
 26  28  29  30  38  39  40  41  42  43  44  45 0
 3-21G
 ****


