%nproc=1
%NoSave
%Mem=1900MB
#P OB98/GEN NMR

erre ene a

0 1
  C     1186.515      40.490     -34.138
  O     1186.635      39.939     -35.448
  P     1187.576      40.718     -36.486
  C     1189.126      38.625     -36.648
  O     1189.012      40.022     -36.378
  C     1189.792      38.384     -37.992
  O     1190.988      39.166     -38.095
  C     1190.213      36.954     -38.232
  O     1189.090      36.157     -38.572
  C     1191.221      37.118     -39.354
  O     1190.588      37.111     -40.634
  C     1191.854      38.491     -39.045
  N     1193.211      38.396     -38.553
  C     1194.127      37.797     -39.428
  O     1193.759      37.387     -40.517
  N     1195.432      37.652     -39.003
  C     1195.783      38.059     -37.816
  N     1197.083      37.903     -37.470
  C     1194.831      38.674     -36.868
  C     1193.584      38.803     -37.286
  O     1187.774      42.140     -35.808
  O     1187.002      40.818     -37.876
  H     1191.233      37.507     -41.260
  H     1187.953      42.825     -36.482
  H     1195.179      39.009     -35.902
  H     1192.819      39.242     -36.662
  H     1191.860      39.108     -39.950
  H     1191.955      36.293     -39.363
  H     1190.707      36.551     -37.338
  H     1189.096      38.719     -38.782
  H     1197.701      37.466     -38.136
  H     1188.114      38.192     -36.652
  H     1197.454      38.210     -36.581
  H     1189.697      38.163     -35.840
  P     1189.179      34.583     -38.285
  C     1187.916      34.724     -36.042
  O     1189.153      34.458     -36.681
  O     1190.705      34.258     -38.622
  O     1188.229      33.703     -39.030
  H     1190.848      33.296     -38.572
  H     1187.994      34.451     -34.990
  H     1187.115      34.131     -36.507
  H     1187.674      35.791     -36.119
  H     1185.863      39.877     -33.552
  H     1186.112      41.479     -34.203
  H     1187.480      40.527     -33.677

 3  4  5  6  7  8  9  10  11  12  13  21  23  27  28  29  30  32 0
 6-311+G(2d,p)
 ****
 34  35 0
 6-311+G(2d,p)
 ****
 1  2  14  15  16  17  18  19  20  22  24  25  26 0
 3-21G
 ****
 31  33  36  37  38  39  40  41  42  43  44  45  46 0
 3-21G
 ****


