%nproc=1
%NoSave
%Mem=1900MB
#P OB98/GEN NMR

erre ene a

0 1
  C      629.034     130.611     506.681
  O      628.668     129.289     506.345
  P      629.431     128.039     507.004
  C      627.492     126.821     505.799
  O      628.848     126.749     506.243
  C      627.421     126.878     504.272
  O      628.152     125.783     503.691
  C      626.009     126.779     503.715
  O      625.327     128.018     503.863
  C      626.290     126.370     502.279
  O      626.613     127.517     501.460
  C      627.516     125.446     502.423
  N      627.161     124.040     502.357
  C      627.034     123.507     501.061
  O      627.194     124.232     500.080
  N      626.685     122.185     500.919
  C      626.456     121.465     501.976
  N      626.108     120.170     501.773
  C      626.544     121.996     503.354
  C      626.890     123.272     503.467
  O      629.379     127.976     508.500
  O      630.917     128.167     506.414
  H      627.346     127.971     501.911
  H      631.413     128.894     506.846
  H      626.337     121.357     504.199
  H      626.973     123.743     504.441
  H      628.253     125.660     501.648
  H      625.420     125.879     501.809
  H      625.460     125.978     504.221
  H      627.895     127.817     503.944
  H      626.030     119.854     500.808
  H      627.044     127.722     506.213
  H      625.875     119.529     502.523
  H      626.944     125.960     506.179
  P      623.924     128.073     504.610
  C      624.471     130.347     505.657
  O      623.559     129.615     504.866
  O      623.791     127.183     505.800
  O      622.869     127.653     503.477
  H      622.237     127.028     503.848
  H      624.309     131.417     505.493
  H      625.505     130.103     505.399
  H      624.300     130.124     506.716
  H      628.416     131.300     506.144
  H      630.059     130.774     506.421
  H      628.904     130.761     507.733

 3  4  5  6  7  8  9  10  11  12  13  23  27  28  29  30  32 0
 6-311+G(2d,p)
 ****
 34  35 0
 6-311+G(2d,p)
 ****
 1  2  14  15  16  17  18  19  20  21  22  24  25  26 0
 3-21G
 ****
 31  33  36  37  38  39  40  41  42  43  44  45  46 0
 3-21G
 ****


