%nproc=1
%NoSave
%Mem=1900MB
#P OB98/GEN NMR

erre ene a

0 1
  C      458.262     137.259     596.461
  O      459.593     136.780     596.589
  P      460.313     136.177     595.295
  C      459.483     134.854     593.204
  O      459.279     135.212     594.568
  C      458.913     133.443     592.941
  O      457.470     133.463     593.029
  C      459.234     132.912     591.548
  O      460.573     132.420     591.496
  C      458.172     131.834     591.384
  O      458.585     130.604     592.021
  C      456.969     132.454     592.121
  N      455.953     132.975     591.210
  C      455.104     132.057     590.644
  O      455.176     130.837     590.864
  N      454.161     132.552     589.784
  C      454.040     133.861     589.400
  O      453.205     134.232     588.576
  C      454.992     134.796     590.010
  C      455.901     134.336     590.864
  O      461.419     135.196     595.876
  O      460.899     137.216     594.388
  H      459.283     130.221     591.448
  H      462.235     135.223     595.316
  H      453.511     131.907     589.381
  H      454.909     135.838     589.732
  H      456.623     134.996     591.325
  H      456.494     131.695     592.758
  H      457.983     131.598     590.337
  H      459.060     133.706     590.805
  H      459.300     132.768     593.718
  H      460.552     134.855     592.983
  H      458.982     135.604     592.568
  P      461.281     132.428     590.039
  C      460.635     131.266     587.781
  O      460.479     131.302     589.191
  O      462.702     131.782     590.383
  O      461.370     133.791     589.444
  H      462.623     131.125     591.108
  H      461.656     131.529     587.477
  H      459.928     131.944     587.318
  H      460.421     130.250     587.439
  H      457.923     137.628     597.407
  H      457.625     136.461     596.140
  H      458.235     138.049     595.740

 3  4  5  6  7  8  9  10  11  12  13  23  28  29  30  31  32 0
 6-311+G(2d,p)
 ****
 33  34 0
 6-311+G(2d,p)
 ****
 1  2  14  15  16  17  18  19  20  21  22  24  25  26 0
 3-21G
 ****
 27  35  36  37  38  39  40  41  42  43  44  45 0
 3-21G
 ****


