%nproc=1
%NoSave
%Mem=1900MB
#P OB98/GEN NMR

erre ene a

0 1
  C     -899.010     368.406    -287.880
  O     -898.580     369.537    -287.156
  H     -900.000     368.099    -287.508
  H     -898.320     367.567    -287.750
  H     -899.100     368.643    -288.943
  P     -897.090     370.077    -287.419
  C     -896.260     368.807    -285.317
  O     -896.370     370.055    -285.987
  C     -895.060     368.834    -284.375
  O     -893.850     369.111    -285.107
  C     -895.150     369.909    -283.311
  O     -896.060     369.545    -282.291
  C     -893.700     370.036    -282.880
  O     -893.330     368.985    -281.973
  C     -892.970     369.873    -284.226
  N     -892.590     371.149    -284.831
  C     -891.230     371.294    -285.107
  O     -890.430     370.395    -284.861
  N     -890.810     372.509    -285.647
  C     -891.660     373.447    -285.897
  N     -891.180     374.598    -286.426
  C     -893.110     373.314    -285.628
  C     -893.510     372.140    -285.096
  O     -896.960     371.363    -288.174
  O     -896.380     368.856    -288.189
  H     -893.500     368.139    -282.448
  H     -896.500     368.953    -289.157
  H     -893.790     374.114    -285.857
  H     -894.540     371.965    -284.872
  H     -892.060     369.255    -284.100
  H     -893.500     370.978    -282.384
  H     -895.450     370.873    -283.754
  H     -894.950     367.845    -283.915
  H     -890.180     374.669    -286.588
  H     -896.120     368.038    -286.083
  H     -891.770     375.364    -286.735
  H     -897.170     368.593    -284.763
  P     -897.350     370.438    -281.974
  C     -896.220     372.246    -280.526
  O     -897.070     371.118    -280.547
  O     -898.660     369.732    -282.105
  O     -897.180     371.668    -282.986
  H     -897.390     371.399    -283.916
  H     -896.119     372.598    -279.521
  H     -896.639     373.020    -281.134
  H     -895.258     371.975    -280.907

 6  7  8  9  10  11  12  13  14  15  16  26  30  31  32  33  35 0
 6-311+G(2d,p)
 ****
 37  38 0
 6-311+G(2d,p)
 ****
 1  2  3  4  5  17  18  19  20  21  22  23  24  25 0
 3-21G
 ****
 27  28  29  34  36  39  40  41  42  43  44  45  46 0
 3-21G
 ****


