%nproc=1
%NoSave
%Mem=1900MB
#P OB98/GEN NMR

erre ene a

0 1
  C      132.607     -21.859     449.385
  O      133.863     -21.783     448.720
  P      135.084     -21.101     449.511
  C      136.689     -19.072     449.055
  O      135.496     -19.770     448.727
  C      137.195     -18.247     447.859
  O      137.616     -19.157     446.822
  C      136.159     -17.337     447.210
  O      136.844     -16.348     446.436
  C      135.440     -18.297     446.285
  O      134.714     -17.605     445.275
  C      136.595     -19.200     445.787
  N      136.188     -20.598     445.521
  C      135.372     -20.850     444.420
  O      134.961     -19.992     443.647
  N      134.992     -22.154     444.241
  C      135.372     -23.214     445.021
  O      134.944     -24.348     444.867
  C      136.350     -22.913     446.080
  C      136.689     -21.636     446.282
  O      136.307     -22.102     449.258
  O      134.813     -20.902     450.970
  H      135.387     -17.167     444.693
  H      136.489     -22.620     450.053
  H      134.352     -22.354     443.491
  H      136.729     -23.724     446.677
  H      137.393     -21.391     447.077
  H      137.029     -18.804     444.849
  H      134.722     -18.895     446.854
  H      135.467     -16.851     447.913
  H      138.077     -17.673     448.173
  H      137.459     -19.791     449.375
  H      136.505     -18.404     449.910
  P      136.749     -14.819     446.921
  C      134.928     -13.005     446.917
  O      135.332     -14.266     446.406
  O      137.931     -13.963     446.612
  O      136.523     -14.958     448.504
  H      136.748     -14.117     448.939
  H      134.297     -12.518     446.168
  H      135.789     -12.354     447.135
  H      134.351     -13.158     447.833
  H      131.893     -22.333     448.745
  H      132.271     -20.872     449.626
  H      132.713     -22.429     450.284

 3  4  5  6  7  8  9  10  11  12  13  23  28  29  30  31  32 0
 6-311+G(2d,p)
 ****
 33  34 0
 6-311+G(2d,p)
 ****
 1  2  14  15  16  17  18  19  20  21  22  24  25  26  27 0
 3-21G
 ****
 35  36  37  38  39  40  41  42  43  44  45 0
 3-21G
 ****


