%nproc=1
%NoSave
%Mem=1900MB
#P OB98/GEN NMR

erre ene a

0 1
  C       78.540     -75.719     225.535
  O       79.746     -76.466     225.785
  P       80.235     -76.676     227.304
  C       79.874     -79.263     227.451
  O       79.502     -77.969     227.907
  C       78.942     -80.320     228.053
  O       77.569     -79.872     228.011
  C       78.948     -81.656     227.321
  O       80.101     -82.419     227.623
  C       77.652     -82.281     227.824
  O       77.847     -82.905     229.106
  C       76.734     -81.048     227.952
  N       75.758     -80.958     226.870
  C       74.449     -80.667     227.240
  O       74.090     -80.542     228.410
  N       73.549     -80.553     226.216
  C       73.809     -80.768     224.892
  O       72.957     -80.670     224.019
  C       75.191     -81.155     224.568
  C       76.085     -81.238     225.559
  O       79.476     -75.483     228.065
  O       81.711     -76.594     227.525
  H       78.319     -83.745     228.938
  H       79.994     -75.218     228.851
  H       72.601     -80.310     226.460
  H       75.434     -81.357     223.535
  H       77.111     -81.522     225.336
  H       76.194     -81.082     228.907
  H       77.270     -83.050     227.146
  H       78.867     -81.485     226.240
  H       79.220     -80.460     229.109
  H       80.901     -79.472     227.763
  H       79.826     -79.285     226.359
  P       81.351     -82.270     226.622
  C       82.953     -81.178     228.376
  O       82.200     -81.036     227.190
  O       80.625     -81.709     225.310
  O       82.098     -83.550     226.423
  H       79.868     -81.138     225.526
  H       83.350     -82.190     228.485
  H       82.321     -80.941     229.236
  H       83.788     -80.471     228.347
  H       78.360     -75.674     224.481
  H       78.649     -74.727     225.921
  H       77.715     -76.201     226.017

 3  4  5  6  7  8  9  10  11  12  13  23  28  29  30  31  32 0
 6-311+G(2d,p)
 ****
 33  34 0
 6-311+G(2d,p)
 ****
 1  2  14  15  16  17  18  19  20  21  22  24  25  26 0
 3-21G
 ****
 27  35  36  37  38  39  40  41  42  43  44  45 0
 3-21G
 ****


