%nproc=1
%NoSave
%Mem=1900MB
#P OB98/GEN NMR

erre ene a

0 1
  C      -16.772     -19.286     -22.449
  O      -16.254     -18.801     -21.224
  P      -16.814     -17.414     -20.652
  C      -19.106     -16.605     -19.730
  O      -18.408     -17.549     -20.525
  C      -20.508     -16.364     -20.295
  O      -20.407     -15.557     -21.507
  C      -21.261     -17.650     -20.665
  O      -22.655     -17.422     -20.413
  C      -21.024     -17.750     -22.160
  O      -21.962     -18.587     -22.820
  C      -21.107     -16.270     -22.545
  N      -20.543     -15.994     -23.865
  C      -21.228     -16.490     -24.969
  O      -22.269     -17.141     -24.898
  N      -20.640     -16.265     -26.185
  C      -19.422     -15.689     -26.395
  O      -18.897     -15.624     -27.500
  C      -18.743     -15.184     -25.191
  C      -19.325     -15.356     -24.002
  O      -16.615     -16.405     -21.877
  O      -16.136     -16.931     -19.414
  H      -21.735     -19.509     -22.602
  H      -15.816     -15.862     -21.745
  H      -21.128     -16.608     -26.997
  H      -17.784     -14.702     -25.323
  H      -18.838     -15.011     -23.096
  H      -22.151     -15.931     -22.518
  H      -20.023     -18.156     -22.343
  H      -20.915     -18.533     -20.120
  H      -21.083     -15.782     -19.566
  H      -18.556     -15.663     -19.725
  H      -19.164     -16.965     -18.697
  P      -23.575     -18.694     -20.073
  C      -23.723     -20.302     -18.019
  O      -22.967     -19.362     -18.752
  O      -23.143     -19.695     -21.247
  O      -25.037     -18.389     -20.055
  H      -22.184     -19.704     -21.396
  H      -24.351     -20.912     -18.673
  H      -24.355     -19.776     -17.300
  H      -23.039     -20.958     -17.475
  H      -16.300     -20.215     -22.693
  H      -16.580     -18.574     -23.224
  H      -17.827     -19.436     -22.356

 3  4  5  6  7  8  9  10  11  12  13  23  28  29  30  31  32 0
 6-311+G(2d,p)
 ****
 33  34 0
 6-311+G(2d,p)
 ****
 1  2  14  15  16  17  18  19  20  21  22  24  25  26 0
 3-21G
 ****
 27  35  36  37  38  39  40  41  42  43  44  45 0
 3-21G
 ****


