%nproc=1
%NoSave
%Mem=1900MB
#P OB98/GEN NMR

erre ene a

0 1
  C     -285.001     -88.525      32.461
  O     -285.330     -87.484      33.355
  P     -286.233     -86.239      32.899
  C     -288.373     -86.903      34.159
  O     -287.745     -86.779      32.892
  C     -289.654     -86.068      34.229
  O     -290.320     -86.305      35.500
  C     -289.437     -84.551      34.097
  O     -290.587     -84.043      33.414
  C     -289.432     -84.097      35.542
  O     -289.683     -82.704      35.678
  C     -290.498     -85.024      36.144
  N     -290.390     -85.116      37.594
  C     -291.124     -84.189      38.338
  O     -291.761     -83.298      37.769
  N     -291.081     -84.255      39.708
  C     -290.287     -85.105      40.281
  N     -290.289     -85.128      41.641
  C     -289.401     -86.015      39.534
  C     -289.512     -85.979      38.206
  O     -285.798     -85.568      31.640
  O     -286.216     -85.273      34.174
  H     -289.697     -82.487      36.637
  H     -285.358     -84.783      34.225
  H     -288.716     -86.668      40.056
  H     -288.903     -86.609      37.576
  H     -291.506     -84.670      35.891
  H     -288.453     -84.306      35.989
  H     -288.521     -84.289      33.567
  H     -290.329     -86.420      33.441
  H     -290.927     -84.499      42.114
  H     -287.678     -86.540      34.920
  H     -289.774     -85.808      42.184
  H     -288.583     -87.955      34.370
  P     -290.704     -82.491      33.026
  C     -289.187     -82.494      30.964
  O     -289.330     -82.082      32.311
  O     -291.123     -81.589      34.143
  O     -291.764     -82.460      31.825
  H     -292.083     -81.547      31.697
  H     -288.367     -81.931      30.506
  H     -290.106     -82.311      30.397
  H     -288.949     -83.562      30.930
  H     -284.396     -89.250      32.965
  H     -284.460     -88.124      31.630
  H     -285.898     -88.991      32.111

 3  4  5  6  7  8  9  10  11  12  13  23  27  28  29  30  32 0
 6-311+G(2d,p)
 ****
 34  35 0
 6-311+G(2d,p)
 ****
 1  2  14  15  16  17  18  19  20  21  22  24  25  26 0
 3-21G
 ****
 31  33  36  37  38  39  40  41  42  43  44  45  46 0
 3-21G
 ****


