%nproc=1
%NoSave
%Mem=1900MB
#P OB98/GEN NMR

erre ene a

0 1
  C     -124.530     489.926      73.545
  O     -124.892     488.943      74.503
  P     -123.718     488.266      75.369
  C     -124.147     485.748      74.847
  O     -124.240     486.808      75.784
  C     -124.733     484.461      75.430
  O     -123.886     484.025      76.526
  C     -126.158     484.595      75.984
  O     -126.807     483.332      75.777
  C     -125.927     484.809      77.468
  O     -127.070     484.488      78.255
  C     -124.717     483.913      77.702
  N     -124.006     483.094      82.644
  C     -124.947     482.561      81.784
  N     -125.776     481.632      82.309
  N     -125.064     482.901      80.529
  C     -124.154     483.829      80.142
  C     -123.201     484.460      80.906
  C     -123.058     484.046      82.283
  O     -122.182     484.430      83.053
  N     -122.525     485.407      80.182
  C     -123.015     485.293      78.963
  N     -123.972     484.315      78.881
  O     -123.765     489.094      76.736
  O     -122.360     488.274      74.737
  H     -126.931     484.861      79.150
  H     -123.130     489.834      76.724
  H     -123.950     482.779      83.598
  H     -122.715     485.877      78.110
  H     -124.992     482.856      77.829
  H     -125.682     485.864      77.656
  H     -125.725     481.299      83.260
  H     -126.733     485.400      75.524
  H     -126.455     481.199      81.694
  H     -124.696     483.684      74.659
  H     -123.093     485.578      74.609
  H     -124.665     486.030      73.926
  P     -128.374     483.344      75.436
  C     -129.075     481.967      77.517
  O     -129.021     482.042      76.107
  O     -128.396     482.999      73.869
  O     -129.065     484.638      75.706
  H     -129.157     483.448      73.447
  H     -129.864     481.267      77.808
  H     -129.286     482.942      77.969
  H     -128.116     481.596      77.896
  H     -125.409     490.283      73.051
  H     -123.866     489.495      72.825
  H     -124.042     490.741      74.037

 3  4  5  6  7  8  9  10  11  12  23  26  30  31 0
 6-311+G(2d,p)
 ****
 33  35  36  37  38 0
 6-311+G(2d,p)
 ****
 1  2  13  14  15  16  17  18  19  20  21  22  24  25 0
 3-21G
 ****
 27  28  29  32  34  39  40  41  42  43  44  45  46  47  48  49 0
 3-21G
 ****


