%nproc=1
%NoSave
%Mem=1900MB
#P OB98/GEN NMR

erre ene a

0 1
  C     -243.608     -94.552     402.568
  O     -242.916     -95.654     403.119
  H     -243.361     -93.657     403.147
  H     -244.689     -94.712     402.621
  H     -243.308     -94.390     401.530
  P     -243.120     -97.092     402.443
  C     -245.176     -98.093     401.245
  O     -244.706     -97.301     402.328
  C     -246.317     -98.987     401.707
  O     -247.300     -98.219     402.428
  C     -247.061     -99.685     400.570
  O     -246.348    -100.832     400.140
  C     -248.374    -100.019     401.261
  O     -248.190    -101.157     402.125
  C     -248.613     -98.749     402.098
  N     -253.185     -97.367     400.404
  C     -252.778     -98.547     400.999
  N     -253.718     -99.509     401.117
  N     -251.559     -98.766     401.417
  C     -250.716     -97.741     401.166
  C     -250.996     -96.533     400.569
  C     -252.361     -96.276     400.162
  O     -252.767     -95.240     399.648
  N     -249.867     -95.767     400.428
  C     -248.913     -96.498     400.969
  N     -249.373     -97.711     401.420
  O     -242.405     -98.238     403.093
  O     -242.663     -96.878     400.926
  H     -249.057    -101.346     402.525
  H     -241.722     -97.097     400.807
  H     -254.135     -97.265     400.085
  H     -247.878     -96.193     401.066
  H     -249.127     -98.962     403.041
  H     -249.176    -100.263     400.566
  H     -254.567     -99.498     400.566
  H     -247.270     -98.999     399.743
  H     -253.428    -100.396     401.504
  H     -245.907     -99.723     402.414
  H     -244.335     -98.697     400.889
  H     -245.518     -97.452     400.426
  P     -246.765    -101.613     398.801
  C     -248.886    -102.953     398.179
  O     -248.026    -102.508     399.219
  O     -245.658    -102.365     398.143
  O     -247.427    -100.497     397.873
  H     -246.775    -100.020     397.300
  H     -249.680    -103.536     398.597
  H     -248.330    -103.552     397.488
  H     -249.296    -102.107     397.668

 6  7  8  9  10  11  12  13  14  15  26  29  33  34 0
 6-311+G(2d,p)
 ****
 36  38  39  40  41 0
 6-311+G(2d,p)
 ****
 1  2  3  4  5  16  17  18  19  20  21  22  23  24  25 0
 3-21G
 ****
 27  28  30  31  32  35  37  42  43  44  45  46  47 0
 3-21G
 ****
 48  49 0
 3-21G
 ****


