%nproc=1
%NoSave
%Mem=1900MB
#P OB98/GEN NMR

erre ene a

0 1
  C      526.841     202.196     143.691
  O      528.109     202.483     143.135
  H      526.906     201.254     144.242
  H      526.103     202.088     142.893
  H      526.532     202.987     144.381
  P      528.286     203.928     142.459
  C      530.468     202.730     141.709
  O      529.768     203.960     141.837
  C      531.614     202.875     140.713
  O      531.100     203.221     139.404
  C      532.628     203.956     141.074
  O      533.586     203.489     142.016
  C      533.266     204.201     139.716
  O      534.196     203.142     139.414
  C      532.053     204.131     138.776
  N      532.789     208.986     137.527
  C      533.706     207.963     137.691
  N      535.004     208.281     137.502
  N      533.381     206.738     138.016
  C      532.044     206.569     138.179
  C      531.042     207.501     138.046
  C      531.414     208.849     137.683
  O      530.646     209.789     137.499
  N      529.808     206.951     138.282
  C      530.065     205.692     138.583
  N      531.407     205.410     138.541
  O      528.397     204.916     143.718
  O      527.193     204.342     141.535
  H      534.550     203.325     138.526
  H      527.958     205.761     143.493
  H      533.097     209.916     137.292
  H      529.319     204.952     138.834
  H      532.308     203.710     137.798
  H      533.824     205.141     139.676
  H      535.327     209.214     137.304
  H      532.132     204.875     141.416
  H      535.691     207.544     137.580
  H      532.106     201.896     140.620
  H      529.778     201.957     141.358
  H      530.858     202.442     142.694
  P      533.469     204.029     143.524
  C      535.864     204.997     143.262
  O      534.977     204.203     144.040
  O      532.946     202.739     144.324
  O      532.566     205.203     143.707
  H      532.499     203.012     145.144
  H      536.826     205.019     143.730
  H      535.480     205.993     143.189
  H      535.953     204.576     142.282

 6  7  8  9  10  11  12  13  14  15  26  29  33  34 0
 6-311+G(2d,p)
 ****
 36  38  39  40  41 0
 6-311+G(2d,p)
 ****
 1  2  3  4  5  16  17  18  19  20  21  22  23  24  25 0
 3-21G
 ****
 27  28  30  31  32  35  37  42  43  44  45  46  47 0
 3-21G
 ****
 48  49 0
 3-21G
 ****


