%nproc=1
%NoSave
%Mem=1900MB
#P OB98/GEN NMR

erre ene a

0 1
  C       60.304    -275.092     113.719
  O       61.581    -275.180     114.320
  H       59.872    -274.118     113.950
  H       59.652    -275.870     114.120
  H       60.384    -275.195     112.632
  P       62.499    -276.429     113.920
  C       63.244    -275.274     111.711
  O       62.635    -276.403     112.319
  C       64.568    -275.678     111.063
  O       64.321    -276.792     110.154
  C       65.232    -274.558     110.248
  O       66.653    -274.669     110.400
  C       64.857    -274.906     108.817
  O       65.736    -274.358     107.845
  C       64.888    -276.434     108.877
  N       64.145    -277.053     107.781
  C       64.820    -277.250     106.580
  O       66.011    -277.020     106.403
  N       64.056    -277.735     105.548
  C       62.722    -278.014     105.590
  O       62.090    -278.425     104.624
  C       62.064    -277.775     106.888
  C       62.790    -277.310     107.903
  O       61.544    -277.682     114.193
  O       63.799    -276.532     114.647
  H       61.643    -277.995     115.109
  H       65.278    -274.392     106.983
  H       64.531    -277.884     104.675
  H       61.003    -277.976     106.953
  H       62.333    -277.104     108.861
  H       65.923    -276.794     108.869
  H       63.848    -274.543     108.602
  H       64.907    -273.547     110.526
  H       65.244    -276.048     111.843
  H       63.439    -274.515     112.473
  H       62.561    -274.856     110.962
  P       67.437    -273.388     110.964
  C       66.792    -273.636     113.490
  O       66.630    -272.930     112.272
  O       67.066    -272.292     109.859
  O       68.896    -273.632     111.148
  H       66.165    -272.393     109.513
  H       66.179    -273.190     114.245
  H       67.818    -273.595     113.792
  H       66.501    -274.657     113.352

 6  7  8  9  10  11  12  13  14  15  16  27  31  32  33  34  35 0
 6-311+G(2d,p)
 ****
 36  37 0
 6-311+G(2d,p)
 ****
 1  2  3  4  5  17  18  19  20  21  22  23  24  25 0
 3-21G
 ****
 26  28  29  30  38  39  40  41  42  43  44  45 0
 3-21G
 ****


