%nproc=1
%NoSave
%Mem=1900MB
#P OB98/GEN NMR

erre ene a

0 1
  C       58.710     -91.195      40.146
  O       57.437     -90.642      39.842
  P       56.625     -89.934      41.031
  C       54.879     -91.831      41.257
  O       55.937     -91.114      41.879
  C       53.605     -91.750      42.091
  O       52.494     -92.258      41.303
  C       53.652     -92.560      43.397
  O       53.081     -91.781      44.460
  C       52.717     -93.726      43.125
  O       52.166     -94.259      44.327
  C       51.698     -93.057      42.204
  N       47.651     -96.065      42.515
  C       48.087     -95.081      43.379
  N       47.374     -94.917      44.516
  N       49.132     -94.327      43.156
  C       49.730     -94.581      41.966
  C       49.389     -95.521      41.021
  C       48.266     -96.391      41.312
  O       47.886     -97.338      40.628
  N       50.226     -95.466      39.936
  C       51.075     -94.500      40.225
  N       50.848     -93.962      41.465
  O       55.398     -89.250      40.266
  O       57.396     -88.935      41.822
  H       51.393     -94.796      44.071
  H       55.381     -88.293      40.460
  H       46.851     -96.631      42.743
  H       51.886     -94.176      39.582
  H       51.048     -92.379      42.776
  H       53.268     -94.520      42.611
  H       46.539     -95.439      44.732
  H       54.656     -92.893      43.682
  H       47.665     -94.186      45.151
  H       53.391     -90.693      42.300
  H       55.169     -92.882      41.146
  H       54.703     -91.407      40.261
  P       53.968     -91.650      45.793
  C       53.234     -93.945      46.793
  O       54.280     -93.152      46.255
  O       52.922     -91.122      46.883
  O       55.150     -90.751      45.647
  H       53.386     -90.649      47.600
  H       52.253     -93.467      46.678
  H       53.423     -94.111      47.856
  H       53.217     -94.909      46.279
  H       59.130     -91.630      39.263
  H       58.601     -91.949      40.898
  H       59.358     -90.423      40.506

 3  4  5  6  7  8  9  10  11  12  23  26  30  31  33  0
 6-311+G(2d,p)
 ****
 35  36  37  38 0
 6-311+G(2d,p)
 ****
 1  2  13  14  15  16  17  18  19  20  21  22  24  25  27  28  29 0
 3-21G
 ****
 32  34  39  40  41  42  43  44  45  46  47  48  49 0
 3-21G
 ****


