%nproc=1
%NoSave
%Mem=1900MB
#P OB98/GEN NMR

erre ene a

0 1
  C       65.751    -241.551    -536.130
  O       66.531    -242.620    -535.586
  P       66.128    -243.223    -534.159
  C       64.986    -245.377    -534.969
  O       64.809    -244.113    -534.337
  C       64.960    -246.512    -533.933
  O       63.612    -246.753    -533.450
  C       65.432    -247.846    -534.485
  O       66.839    -247.843    -534.641
  C       64.877    -248.809    -533.454
  O       65.736    -248.894    -532.308
  C       63.536    -248.145    -533.067
  N       62.371    -248.797    -533.658
  C       61.329    -249.101    -532.770
  O       61.434    -248.848    -531.571
  N       60.193    -249.690    -533.274
  C       60.114    -249.956    -534.534
  N       58.968    -250.543    -534.978
  C       61.196    -249.670    -535.486
  C       62.293    -249.100    -534.988
  O       66.091    -242.240    -533.031
  O       67.267    -244.328    -533.905
  H       65.741    -247.999    -531.897
  H       67.420    -244.408    -532.940
  H       61.076    -249.922    -536.539
  H       63.128    -248.857    -535.626
  H       63.401    -248.151    -531.979
  H       64.782    -249.828    -533.852
  H       64.958    -248.037    -535.463
  H       65.584    -246.217    -533.082
  H       58.246    -250.742    -534.287
  H       65.941    -245.392    -535.500
  H       58.787    -250.755    -535.956
  H       64.201    -245.516    -535.728
  P       67.499    -249.000    -535.537
  C       67.412    -247.748    -537.813
  O       66.935    -248.823    -537.033
  O       66.759    -250.325    -535.022
  O       68.986    -249.140    -535.433
  H       67.370    -251.087    -535.065
  H       67.201    -247.955    -538.870
  H       68.507    -247.643    -537.702
  H       66.929    -246.823    -537.525
  H       66.150    -241.266    -537.081
  H       65.781    -240.713    -535.465
  H       64.738    -241.874    -536.250

 3  4  5  6  7  8  9  10  11  12  13  23  27  28  29  30  32 0
 6-311+G(2d,p)
 ****
 34  35 0
 6-311+G(2d,p)
 ****
 1  2  14  15  16  17  18  19  20  21  22  24  25  26 0
 3-21G
 ****
 31  33  36  37  38  39  40  41  42  43  44  45  46 0
 3-21G
 ****


