%nproc=1
%NoSave
%Mem=1900MB
#P OB98/GEN NMR

erre ene a

0 1
  C      198.053     882.561     283.390
  O      199.122     883.433     283.720
  H      198.395     881.869     282.613
  H      197.208     883.132     282.994
  H      197.736     881.985     284.259
  P      198.935     884.454     284.942
  C      197.543     886.576     285.405
  O      197.845     885.534     284.486
  C      196.806     887.713     284.677
  O      195.921     887.177     283.680
  C      195.955     888.576     285.605
  O      196.751     889.465     286.356
  C      195.034     889.241     284.588
  O      195.687     890.360     283.959
  C      194.800     888.097     283.569
  N      193.527     887.405     283.776
  C      192.458     887.832     282.991
  O      192.538     888.761     282.182
  N      191.267     887.169     283.182
  C      191.026     886.230     284.144
  O      189.926     885.731     284.333
  C      192.179     885.837     284.956
  C      193.352     886.432     284.746
  O      200.193     885.026     285.504
  O      198.146     883.589     286.036
  H      195.102     890.646     283.233
  H      198.758     883.332     286.750
  H      190.489     887.475     282.636
  H      192.035     885.083     285.727
  H      194.225     886.154     285.342
  H      194.820     888.485     282.547
  H      194.121     889.621     285.043
  H      195.349     887.940     286.247
  H      197.564     888.327     284.165
  H      198.473     886.953     285.825
  H      196.913     886.172     286.215
  P      196.152     890.131     287.684
  C      194.653     892.128     288.290
  O      195.202     891.345     287.242
  O      197.156     890.461     288.749
  O      195.108     889.037     288.217
  H      195.369     888.742     289.116
  H      194.041     892.901     287.875
  H      195.445     892.567     288.860
  H      194.058     891.506     288.926

 6  7  8  9  10  11  12  13  14  15  16  26  31  32  33  34  35 0
 6-311+G(2d,p)
 ****
 36  37 0
 6-311+G(2d,p)
 ****
 1  2  3  4  5  17  18  19  20  21  22  23  24  25 0
 3-21G
 ****
 27  28  29  30  38  39  40  41  42  43  44  45 0
 3-21G
 ****


