%nproc=1
%NoSave
%Mem=1900MB
#P OB98/GEN NMR

erre ene a

0 1
  C     -304.974     175.703     569.324
  O     -304.635     175.636     570.691
  H     -306.063     175.785     569.238
  H     -304.652     174.797     568.802
  H     -304.521     176.585     568.858
  P     -303.095     175.443     571.091
  C     -302.710     177.938     571.631
  O     -302.361     176.839     570.797
  C     -301.447     178.703     572.050
  O     -300.865     179.280     570.851
  C     -301.750     179.840     573.036
  O     -300.954     179.783     574.217
  C     -301.641     181.093     572.174
  O     -301.301     182.269     572.878
  C     -300.635     180.684     571.092
  N     -300.754     181.443     569.850
  C     -300.068     182.655     569.773
  O     -299.353     183.121     570.661
  N     -300.220     183.344     568.599
  C     -300.974     182.960     567.527
  O     -301.066     183.620     566.503
  C     -301.690     181.684     567.677
  C     -301.548     180.995     568.813
  O     -302.421     174.248     570.509
  O     -303.119     175.385     572.693
  H     -300.379     182.168     573.193
  H     -303.027     174.458     572.988
  H     -299.723     184.218     568.529
  H     -302.302     181.352     566.854
  H     -302.063     180.047     568.956
  H     -299.608     180.800     571.458
  H     -302.615     181.272     571.703
  H     -302.774     179.765     573.419
  H     -300.722     177.990     572.458
  H     -303.220     177.541     572.514
  H     -303.387     178.609     571.096
  P     -301.461     180.178     575.679
  C     -302.585     177.870     576.221
  O     -302.731     179.270     576.024
  O     -301.578     181.641     575.943
  O     -300.309     179.595     576.644
  H     -300.252     180.205     577.414
  H     -303.540     177.439     576.441
  H     -301.917     177.693     577.038
  H     -302.188     177.424     575.333

 6  7  8  9  10  11  12  13  14  15  16  26  31  32  33  34  35 0
 6-311+G(2d,p)
 ****
 36  37 0
 6-311+G(2d,p)
 ****
 1  2  3  4  5  17  18  19  20  21  22  23  24  25 0
 3-21G
 ****
 27  28  29  30  38  39  40  41  42  43  44  45 0
 3-21G
 ****


