%nproc=1
%NoSave
%Mem=1900MB
#P OB98/GEN NMR

erre ene a

0 1
  C      175.319     -61.107     214.665
  O      175.875     -60.174     213.758
  H      174.346     -61.429     214.284
  H      175.176     -60.650     215.647
  H      175.966     -61.984     214.755
  P      177.309     -59.549     214.100
  C      178.333     -60.865     212.129
  O      178.390     -60.583     213.520
  C      179.505     -60.202     211.414
  O      180.737     -60.481     212.106
  C      179.700     -60.673     209.973
  O      178.800     -59.999     209.107
  C      181.150     -60.282     209.751
  O      181.244     -58.862     209.525
  C      181.781     -60.650     211.106
  N      185.855     -63.627     210.619
  C      185.712     -62.272     210.385
  N      186.803     -61.630     209.913
  N      184.599     -61.614     210.576
  C      183.576     -62.402     210.982
  C      183.590     -63.754     211.232
  C      184.843     -64.461     211.070
  O      185.017     -65.660     211.283
  N      182.343     -64.218     211.564
  C      181.585     -63.140     211.554
  N      182.283     -62.012     211.192
  O      177.544     -59.167     215.530
  O      177.432     -58.296     213.115
  H      182.185     -58.669     209.360
  H      177.116     -57.479     213.541
  H      186.734     -64.079     210.432
  H      180.532     -63.118     211.804
  H      182.608     -59.982     211.375
  H      181.602     -60.778     208.892
  H      187.573     -62.129     209.486
  H      179.614     -61.761     209.888
  H      186.705     -60.648     209.688
  H      179.353     -59.115     211.454
  H      177.382     -60.474     211.750
  H      178.362     -61.946     211.957
  P      177.971     -60.801     207.989
  C      175.836     -60.589     209.431
  O      176.746     -61.466     208.781
  O      178.777     -61.754     207.176
  O      177.252     -59.665     207.130
  H      177.798     -59.332     206.377
  H      175.074     -61.162     209.917
  H      175.388     -59.940     208.708
  H      176.361     -60.005     210.158

 6  7  8  9  10  11  12  13  14  15  26  29  33  34 0
 6-311+G(2d,p)
 ****
 36  38  39  40  41 0
 6-311+G(2d,p)
 ****
 1  2  3  4  5  16  17  18  19  20  21  22  23  24  25 0
 3-21G
 ****
 27  28  30  31  32  35  37  42  43  44  45  46  47 0
 3-21G
 ****
 48  49 0
 3-21G
 ****


