%nproc=1
%NoSave
%Mem=1900MB
#P OB98/GEN NMR

erre ene a

0 1
  C     -220.521    -186.222    -317.973
  O     -221.557    -185.772    -318.859
  P     -221.240    -185.730    -320.430
  C     -221.834    -183.198    -320.467
  O     -222.012    -184.476    -321.059
  C     -222.959    -182.248    -320.898
  O     -224.203    -182.559    -320.220
  C     -222.670    -180.785    -320.596
  O     -221.861    -180.196    -321.604
  C     -224.071    -180.193    -320.652
  O     -224.465    -179.980    -322.019
  C     -224.912    -181.310    -320.016
  N     -227.153    -178.348    -316.571
  C     -227.141    -178.259    -317.948
  N     -227.836    -177.235    -318.489
  N     -226.506    -179.102    -318.724
  C     -225.873    -180.083    -318.050
  C     -225.809    -180.278    -316.685
  C     -226.501    -179.338    -315.836
  O     -226.530    -179.351    -314.608
  N     -225.059    -181.383    -316.378
  C     -224.691    -181.872    -317.547
  N     -225.143    -181.107    -318.594
  O     -222.078    -186.980    -320.996
  O     -219.790    -185.840    -320.771
  H     -225.356    -179.585    -321.999
  H     -221.650    -187.325    -321.801
  H     -227.650    -177.669    -316.017
  H     -224.096    -182.766    -317.679
  H     -225.900    -181.407    -320.492
  H     -224.133    -179.224    -320.147
  H     -228.388    -176.582    -317.952
  H     -222.245    -180.662    -319.597
  H     -227.867    -177.173    -319.501
  H     -223.112    -182.376    -321.979
  H     -220.864    -182.778    -320.741
  H     -221.803    -183.316    -319.374
  P     -220.508    -179.458    -321.149
  C     -220.922    -177.547    -322.849
  O     -220.053    -178.554    -322.380
  O     -219.446    -180.657    -321.118
  O     -220.598    -178.767    -319.824
  H     -218.777    -180.489    -320.428
  H     -220.385    -176.931    -323.575
  H     -221.253    -176.907    -322.025
  H     -221.785    -177.996    -323.340
  H     -220.878    -186.195    -316.965
  H     -219.669    -185.582    -318.067
  H     -220.245    -187.224    -318.227

 3  4  5  6  7  8  9  10  11  12  23  26  30  31 0
 6-311+G(2d,p)
 ****
 33  35  36  37  38 0
 6-311+G(2d,p)
 ****
 1  2  13  14  15  16  17  18  19  20  21  22  24  25 0
 3-21G
 ****
 27  28  29  32  34  39  40  41  42  43  44  45  46  47  48  49 0
 3-21G
 ****


