%nproc=1
%NoSave
%Mem=1900MB
#P OB98/GEN NMR

erre ene a

0 1
  C     -132.277    -379.792     160.469
  O     -131.175    -380.677     160.551
  H     -132.909    -380.056     159.615
  H     -132.868    -379.874     161.384
  H     -131.925    -378.760     160.366
  P     -130.198    -380.738     159.279
  C     -129.070    -378.794     157.983
  O     -129.380    -379.350     159.255
  C     -127.793    -377.955     158.078
  O     -127.971    -376.968     159.127
  C     -126.519    -378.758     158.396
  O     -125.544    -378.567     157.369
  C     -125.996    -378.150     159.683
  O     -124.571    -378.009     159.708
  C     -126.689    -376.790     159.741
  N     -127.061    -372.627     162.670
  C     -127.304    -372.821     161.354
  N     -127.291    -373.975     160.655
  C     -127.009    -375.015     161.464
  C     -126.762    -374.982     162.823
  C     -126.776    -373.714     163.429
  N     -126.469    -373.510     164.763
  N     -126.501    -376.250     163.309
  C     -126.547    -377.030     162.249
  N     -126.835    -376.329     161.109
  O     -131.203    -380.602     158.039
  O     -129.360    -381.966     159.181
  H     -124.308    -377.678     158.829
  H     -130.997    -381.285     157.371
  H     -127.536    -371.922     160.780
  H     -126.343    -378.099     162.241
  H     -126.144    -376.022     159.178
  H     -126.292    -378.777     160.528
  H     -126.718    -379.833     158.519
  H     -127.666    -377.408     157.138
  H     -129.889    -378.146     157.654
  H     -126.388    -372.553     165.082
  H     -126.147    -374.297     165.312
  H     -128.949    -379.601     157.254
  P     -125.539    -379.631     156.164
  C     -127.082    -379.549     154.059
  O     -126.112    -378.885     154.863
  O     -126.728    -380.631     156.565
  O     -124.246    -380.348     155.992
  H     -126.567    -381.510     156.179
  H     -127.356    -378.920     153.238
  H     -127.948    -379.763     154.649
  H     -126.670    -380.463     153.685

 6  7  8  9  10  11  12  13  14  15  25  28  32  33  34  35 0
 6-311+G(2d,p)
 ****
 36  39  40 0
 6-311+G(2d,p)
 ****
 1  2  3  4  5  16  17  18  19  20  21  22  23  24 0
 3-21G
 ****
 26  27  29  30  31  37  38  41  42  43  44  45  46  47  48 0
 3-21G
 ****


