%nproc=1
%NoSave
%Mem=1900MB
#P OB98/GEN NMR

erre ene a

0 1
  C        0.992      51.269     335.945
  O        0.494      51.201     337.270
  P        1.541      51.437     338.466
  C        0.650      53.649     339.514
  O        1.635      53.022     338.698
  C        1.011      55.117     339.739
  O        1.157      55.791     338.472
  C       -0.032      55.917     340.511
  O        0.011      55.615     341.895
  C        0.389      57.340     340.154
  O        1.519      57.733     340.949
  C        0.810      57.190     338.680
  N       -0.360      59.970     334.539
  C        0.781      59.845     335.252
  N        1.010      59.104     336.355
  C       -0.098      58.431     336.710
  C       -1.340      58.473     336.100
  C       -1.450      59.280     334.959
  N       -2.625      59.410     334.239
  N       -2.241      57.668     336.763
  C       -1.555      57.140     337.751
  N       -0.250      57.559     337.758
  O        2.945      51.083     337.792
  O        1.289      50.626     339.695
  H        1.894      58.537     340.541
  H        3.553      50.674     338.439
  H        1.629      60.424     334.883
  H       -1.949      56.449     338.486
  H        1.690      57.791     338.429
  H       -0.404      58.079     340.317
  H       -1.035      55.716     340.118
  H        1.978      55.153     340.262
  H        0.603      53.143     340.484
  H       -2.661      60.125     333.526
  H       -3.467      59.013     334.630
  H       -0.325      53.557     339.029
  P       -1.129      54.637     342.468
  C        0.840      53.249     343.371
  O       -0.373      53.228     342.633
  O       -2.034      54.404     341.173
  O       -1.833      55.144     343.680
  H       -1.503      54.167     340.393
  H        1.213      52.230     343.452
  H        0.665      53.648     344.376
  H        1.581      53.860     342.852
  H        0.194      51.094     335.254
  H        1.749      50.525     335.810
  H        1.409      52.239     335.770

 3  4  5  6  7  8  9  10  11  12  22  25  29  30  31  32 0
 6-311+G(2d,p)
 ****
 33  36  37 0
 6-311+G(2d,p)
 ****
 1  2  13  14  15  16  17  18  19  20  21  23  24  26 0
 3-21G
 ****
 27  28  34  35  38  39  40  41  42  43  44  45  46  47  48 0
 3-21G
 ****


