%nproc=1
%NoSave
%Mem=1900MB
#P OB98/GEN NMR

erre ene a

0 1
  C     1707.725     413.395     845.457
  O     1708.992     412.779     845.607
  H     1707.832     414.465     845.662
  H     1707.032     412.963     846.179
  H     1707.335     413.269     844.446
  P     1709.234     411.340     844.939
  C     1710.769     411.871     842.939
  O     1709.448     411.553     843.363
  C     1711.475     410.661     842.311
  O     1710.624     410.092     841.283
  C     1712.791     411.043     841.635
  O     1713.915     411.049     842.493
  C     1712.930     409.948     840.570
  O     1713.606     408.784     841.085
  C     1711.473     409.611     840.236
  N     1711.519     409.342     835.104
  C     1712.266     408.609     836.030
  N     1713.149     407.727     835.506
  N     1712.144     408.752     837.323
  C     1711.292     409.745     837.691
  C     1710.529     410.538     836.860
  C     1710.602     410.325     835.447
  O     1709.953     410.921     834.587
  N     1709.807     411.473     837.600
  C     1710.208     411.288     838.829
  N     1711.046     410.208     838.951
  O     1707.778     410.658     845.001
  O     1710.247     410.471     845.626
  H     1713.702     408.143     840.354
  H     1707.872     409.685     845.089
  H     1711.625     409.173     834.141
  H     1709.893     411.865     839.697
  H     1711.307     408.532     840.144
  H     1713.522     410.303     839.723
  H     1713.334     407.643     834.536
  H     1712.709     412.012     841.127
  H     1713.837     407.327     836.148
  H     1711.626     409.894     843.078
  H     1711.318     412.198     843.820
  H     1710.746     412.714     842.232
  P     1714.934     412.267     842.532
  C     1714.580     412.855     845.070
  O     1714.508     413.243     843.716
  O     1714.546     413.099     841.222
  O     1716.389     411.920     842.565
  H     1715.168     412.898     840.489
  H     1714.247     413.661     845.690
  H     1715.592     412.609     845.317
  H     1713.956     412.001     845.230

 6  7  8  9  10  11  12  13  14  15  26  29  33  34 0
 6-311+G(2d,p)
 ****
 36  38  39  40  41 0
 6-311+G(2d,p)
 ****
 1  2  3  4  5  16  17  18  19  20  21  22  23  24  25 0
 3-21G
 ****
 27  28  30  31  32  35  37  42  43  44  45  46  47 0
 3-21G
 ****
 48  49 0
 3-21G
 ****


