%nproc=1
%NoSave
%Mem=1900MB
#P OB98/GEN NMR

erre ene a

0 1
  C     -203.784     551.306     996.928
  O     -202.653     551.710     996.185
  H     -204.571     550.995     996.247
  H     -204.161     552.128     997.545
  H     -203.531     550.452     997.578
  P     -201.419     552.307     997.017
  C     -199.936     550.468     995.924
  O     -200.404     551.055     997.120
  C     -198.450     550.817     995.724
  O     -197.672     550.390     996.864
  C     -197.799     550.146     994.491
  O     -198.130     550.755     993.281
  C     -196.331     550.334     994.853
  O     -195.960     551.712     994.619
  C     -196.350     550.004     996.359
  N     -196.091     548.576     996.643
  C     -194.783     548.123     996.398
  O     -193.923     548.898     995.951
  N     -194.511     546.795     996.606
  C     -195.416     545.988     997.045
  N     -195.061     544.691     997.249
  C     -196.805     546.430     997.340
  C     -197.055     547.719     997.124
  O     -201.996     552.419     998.504
  O     -200.819     553.573     996.484
  H     -195.047     551.797     994.905
  H     -201.275     552.639     999.140
  H     -197.540     545.733     997.697
  H     -198.048     548.116     997.321
  H     -195.593     550.613     996.920
  H     -195.659     549.717     994.251
  H     -198.015     549.061     994.470
  H     -198.365     551.906     995.650
  H     -194.132     544.401     996.990
  H     -200.532     550.845     995.080
  H     -195.771     543.976     997.452
  H     -200.028     549.377     995.970
  P     -198.668     549.811     992.082
  C     -201.122     550.615     992.587
  O     -200.216     549.502     992.401
  O     -197.945     548.405     992.403
  O     -198.384     550.305     990.710
  H     -197.727     547.931     991.576
  H     -202.105     550.245     992.790
  H     -201.142     551.211     991.699
  H     -200.789     551.212     993.410

 6  7  8  9  10  11  12  13  14  15  16  26  30  31  32  33  35 0
 6-311+G(2d,p)
 ****
 37  38 0
 6-311+G(2d,p)
 ****
 1  2  3  4  5  17  18  19  20  21  22  23  24  25 0
 3-21G
 ****
 27  28  29  34  36  39  40  41  42  43  44  45  46 0
 3-21G
 ****


