%nproc=1
%NoSave
%Mem=1900MB
#P OB98/GEN NMR

erre ene a

0 1
  C       -4.471    -130.756     185.398
  O       -3.860    -130.805     184.128
  H       -5.556    -130.772     185.264
  H       -4.193    -129.827     185.903
  H       -4.182    -131.611     186.015
  P       -2.327    -131.250     184.029
  C       -1.493    -129.056     182.954
  O       -1.418    -129.926     184.076
  C       -1.009    -127.647     183.298
  O       -1.890    -127.057     184.278
  C        0.397    -127.641     183.906
  O        1.448    -127.596     182.957
  C        0.367    -126.370     184.752
  O        0.763    -125.222     183.983
  C       -1.103    -126.256     185.170
  N       -0.276    -125.336     190.130
  C        0.319    -124.749     189.030
  N        1.276    -123.833     189.292
  N        0.008    -125.053     187.797
  C       -0.893    -126.056     187.694
  C       -1.535    -126.726     188.711
  C       -1.240    -126.332     190.072
  O       -1.750    -126.809     191.079
  N       -2.356    -127.715     188.225
  C       -2.141    -127.696     186.925
  N       -1.325    -126.657     186.548
  O       -2.173    -131.717     182.502
  O       -1.911    -132.347     184.961
  H        1.700    -125.336     183.732
  H       -1.507    -132.426     182.443
  H       -0.017    -125.041     191.055
  H       -2.584    -128.379     186.209
  H       -1.465    -125.225     185.076
  H        1.066    -126.444     185.589
  H        1.614    -123.625     190.217
  H        0.531    -128.494     184.577
  H        1.867    -123.520     188.520
  H       -1.060    -127.018     182.400
  H       -2.540    -129.028     182.652
  H       -0.919    -129.465     182.117
  P        2.975    -127.686     183.418
  C        3.403    -125.464     182.087
  O        3.643    -126.249     183.234
  O        3.652    -128.559     182.261
  O        3.203    -128.276     184.772
  H        3.739    -129.490     182.540
  H        3.944    -124.544     182.165
  H        2.356    -125.257     182.009
  H        3.727    -125.996     181.217

 6  7  8  9  10  11  12  13  14  15  26  29  33  34 0
 6-311+G(2d,p)
 ****
 36  38  39  40  41 0
 6-311+G(2d,p)
 ****
 1  2  3  4  5  16  17  18  19  20  21  22  23  24  25 0
 3-21G
 ****
 27  28  30  31  32  35  37  42  43  44  45  46  47 0
 3-21G
 ****
 48  49 0
 3-21G
 ****


