%nproc=1
%NoSave
%Mem=1900MB
#P OB98/GEN NMR

erre ene a

0 1
  C       17.222     388.654     785.446
  O       17.152     389.471     784.297
  H       16.611     389.101     786.232
  H       18.257     388.597     785.797
  H       16.844     387.648     785.240
  P       17.722     388.913     782.908
  C       20.239     389.134     783.433
  O       19.145     388.251     783.246
  C       21.560     388.371     783.304
  O       21.570     387.693     782.009
  C       22.807     389.281     783.368
  O       23.863     388.561     784.009
  C       23.116     389.472     781.898
  O       24.444     389.884     781.686
  C       22.788     388.079     781.349
  N       22.652     388.098     779.898
  C       23.628     387.428     779.161
  O       24.580     386.841     779.672
  N       23.512     387.509     777.802
  C       22.614     388.273     777.118
  O       22.610     388.372     775.901
  C       21.640     389.010     777.950
  C       21.697     388.886     779.274
  O       17.741     389.884     781.773
  O       16.816     387.630     782.593
  H       25.060     389.174     781.954
  H       16.850     387.414     781.642
  H       24.206     387.019     777.256
  H       20.921     389.636     777.440
  H       21.011     389.423     779.917
  H       23.565     387.357     781.626
  H       22.456     390.229     781.468
  H       22.621     390.219     783.896
  H       21.594     387.589     784.073
  H       20.157     389.574     784.430
  H       20.194     389.934     782.688
  P       24.429     388.986     785.452
  C       26.747     389.983     784.957
  O       25.395     390.261     785.320
  O       25.020     387.858     786.233
  O       23.147     389.566     786.218
  H       23.124     389.200     787.121
  H       27.296     390.899     784.898
  H       26.767     389.494     784.006
  H       27.191     389.348     785.695

 6  7  8  9  10  11  12  13  14  15  16  26  31  32  33  34  35 0
 6-311+G(2d,p)
 ****
 36  37 0
 6-311+G(2d,p)
 ****
 1  2  3  4  5  17  18  19  20  21  22  23  24  25 0
 3-21G
 ****
 27  28  29  30  38  39  40  41  42  43  44  45 0
 3-21G
 ****


