%nproc=1
%NoSave
%Mem=1900MB
#P OB98/GEN NMR

erre ene a

0 1
  C      568.275     660.088      74.663
  O      568.092     658.734      74.304
  H      567.502     660.684      74.167
  H      569.250     660.432      74.328
  H      568.180     660.226      75.743
  P      568.891     657.603      75.112
  C      566.580     656.564      75.576
  O      567.840     656.929      76.116
  C      565.900     655.494      76.432
  O      566.426     654.186      76.055
  C      566.132     655.665      77.936
  O      564.986     655.144      78.614
  C      567.326     654.758      78.174
  O      567.481     654.435      79.539
  C      566.985     653.587      77.244
  N      568.148     652.751      76.944
  C      568.596     651.920      77.966
  O      568.078     651.898      79.092
  N      569.689     651.150      77.683
  C      570.399     651.167      76.517
  O      571.389     650.473      76.330
  C      569.901     652.095      75.481
  C      568.815     652.829      75.744
  O      570.171     658.049      75.750
  O      569.143     656.447      74.034
  H      568.253     653.834      79.664
  H      569.966     655.969      74.236
  H      570.021     650.534      78.417
  H      570.449     652.145      74.553
  H      568.429     653.520      75.003
  H      566.215     652.948      77.692
  H      568.253     655.249      77.853
  H      566.325     656.692      78.234
  H      564.827     655.480      76.197
  H      566.744     656.180      74.559
  H      565.934     657.450      75.516
  P      563.561     655.891      78.586
  C      562.655     654.040      77.038
  O      562.768     655.444      77.270
  O      563.646     657.374      78.784
  O      562.716     655.209      79.767
  H      562.067     655.847      80.122
  H      562.108     653.871      76.134
  H      562.140     653.583      77.857
  H      563.632     653.614      76.948

 6  7  8  9  10  11  12  13  14  15  16  26  31  32  33  34  35 0
 6-311+G(2d,p)
 ****
 36  37 0
 6-311+G(2d,p)
 ****
 1  2  3  4  5  17  18  19  20  21  22  23  24  25 0
 3-21G
 ****
 27  28  29  30  38  39  40  41  42  43  44  45 0
 3-21G
 ****


