%nproc=1
%NoSave
%Mem=1900MB
#P OB98/GEN NMR

erre ene a

0 1
  C     -346.704    -148.513     144.775
  O     -346.234    -148.575     146.118
  P     -346.711    -149.808     147.020
  C     -344.394    -149.445     148.122
  O     -345.755    -149.831     148.311
  C     -343.753    -149.064     149.455
  O     -344.341    -147.813     149.919
  C     -343.934    -150.100     150.571
  O     -342.693    -150.258     151.275
  C     -344.922    -149.436     151.519
  O     -344.795    -149.932     152.845
  C     -344.535    -147.969     151.341
  N     -345.094    -143.544     153.713
  C     -343.968    -144.100     153.134
  N     -342.819    -143.397     153.260
  N     -343.969    -145.245     152.502
  C     -345.196    -145.818     152.425
  C     -346.382    -145.357     152.947
  C     -346.355    -144.122     153.700
  O     -347.298    -143.626     154.316
  N     -347.421    -146.211     152.649
  C     -346.861    -147.185     151.951
  N     -345.503    -147.015     151.830
  O     -346.229    -151.079     146.169
  O     -348.177    -149.873     147.297
  H     -345.447    -149.459     153.399
  H     -346.991    -151.668     145.987
  H     -345.034    -142.671     154.208
  H     -347.382    -148.039     151.543
  H     -343.581    -147.762     151.841
  H     -345.940    -149.634     151.166
  H     -342.753    -142.497     153.710
  H     -344.285    -151.082     150.221
  H     -341.985    -143.778     152.826
  H     -342.686    -148.865     149.281
  H     -344.361    -148.586     147.440
  H     -343.852    -150.285     147.667
  P     -342.112    -151.760     151.363
  C     -339.978    -150.603     150.420
  O     -340.526    -151.627     151.235
  O     -342.560    -152.406     149.959
  O     -342.626    -152.540     152.531
  H     -342.619    -153.376     150.035
  H     -340.746    -149.895     150.072
  H     -339.511    -151.064     149.546
  H     -339.223    -150.065     150.991
  H     -346.306    -147.642     144.298
  H     -347.773    -148.464     144.773
  H     -346.386    -149.387     144.245

 3  4  5  6  7  8  9  10  11  12  23  26  30  31  33  0
 6-311+G(2d,p)
 ****
 35  36  37  38 0
 6-311+G(2d,p)
 ****
 1  2  13  14  15  16  17  18  19  20  21  22  24  25  27  28  29 0
 3-21G
 ****
 32  34  39  40  41  42  43  44  45  46  47  48  49 0
 3-21G
 ****


