%nproc=1
%NoSave
%Mem=1900MB
#P OB98/GEN NMR

erre ene a

0 1
  C      -83.143     164.941     418.278
  O      -81.721     164.934     418.121
  P      -81.065     165.830     416.967
  C      -80.307     165.556     414.514
  O      -80.805     164.906     415.675
  C      -80.540     164.699     413.266
  O      -79.783     163.451     413.349
  C      -82.018     164.313     413.082
  O      -82.343     164.228     411.684
  C      -82.080     162.916     413.662
  O      -83.211     162.195     413.178
  C      -80.726     162.364     413.215
  N      -80.887     157.263     413.665
  C      -81.359     158.097     412.706
  N      -81.258     159.442     412.648
  C      -80.574     159.920     413.703
  C      -80.030     159.192     414.748
  C      -80.216     157.796     414.712
  N      -79.757     156.949     415.697
  N      -79.405     160.024     415.656
  C      -79.613     161.240     415.186
  N      -80.285     161.222     413.999
  O      -79.901     166.669     417.382
  O      -82.291     166.748     416.489
  H      -83.076     162.042     412.221
  H      -81.971     167.659     416.345
  H      -81.894     157.622     411.890
  H      -79.314     162.157     415.677
  H      -80.734     162.062     412.163
  H      -82.147     162.973     414.754
  H      -82.726     164.996     413.564
  H      -80.167     165.238     412.385
  H      -79.237     165.759     414.635
  H      -80.040     155.981     415.640
  H      -79.384     157.345     416.548
  H      -80.788     166.538     414.420
  P      -83.154     165.479     411.071
  C      -85.674     166.186     411.104
  O      -84.676     165.280     411.526
  O      -82.921     165.680     409.609
  O      -82.624     166.689     411.978
  H      -82.665     166.530     412.936
  H      -86.648     165.802     411.414
  H      -85.665     166.290     410.017
  H      -85.512     167.160     411.569
  H      -83.416     164.295     419.086
  H      -83.603     164.597     417.376
  H      -83.474     165.936     418.490

 3  4  5  6  7  8  9  10  11  12  22  25  29  30  31  32 0
 6-311+G(2d,p)
 ****
 33  36  37 0
 6-311+G(2d,p)
 ****
 1  2  13  14  15  16  17  18  19  20  21  23  24  26 0
 3-21G
 ****
 27  28  34  35  38  39  40  41  42  43  44  45  46  47  48 0
 3-21G
 ****


