%nproc=1
%NoSave
%Mem=1900MB
#P OB98/GEN NMR

erre ene a

0 1
  C      508.427     -80.489     -59.535
  O      507.570     -79.801     -58.642
  H      508.643     -79.835     -60.384
  H      507.943     -81.397     -59.902
  H      509.364     -80.740     -59.031
  P      507.100     -80.605     -57.337
  C      505.312     -82.041     -58.514
  O      506.595     -82.022     -57.903
  C      504.807     -83.480     -58.653
  O      505.646     -84.172     -59.612
  C      504.850     -84.268     -57.342
  O      503.703     -85.115     -57.271
  C      506.099     -85.119     -57.478
  O      506.047     -86.303     -56.689
  C      506.147     -85.366     -58.986
  N      509.618     -89.050     -59.623
  C      508.312     -89.086     -59.277
  N      507.450     -88.055     -59.147
  C      508.055     -86.897     -59.460
  C      509.374     -86.699     -59.826
  C      510.182     -87.848     -59.898
  N      511.517     -87.822     -60.223
  N      509.631     -85.356     -60.027
  C      508.476     -84.749     -59.798
  N      507.500     -85.641     -59.437
  O      506.134     -79.890     -56.452
  O      508.501     -80.979     -56.661
  H      505.215     -86.777     -56.892
  H      509.144     -81.294     -57.324
  H      507.905     -90.077     -59.072
  H      508.304     -83.684     -59.868
  H      505.523     -86.214     -59.291
  H      506.976     -84.539     -57.152
  H      504.888     -83.622     -56.463
  H      503.797     -83.456     -59.072
  H      505.358     -81.572     -59.504
  H      512.012     -88.695     -60.269
  H      511.949     -86.936     -60.450
  H      504.635     -81.460     -57.884
  P      502.332     -84.498     -56.707
  C      503.216     -84.914     -54.313
  O      502.575     -83.996     -55.200
  O      501.110     -85.324     -56.923
  O      502.233     -83.109     -57.509
  H      501.292     -82.941     -57.732
  H      503.319     -84.464     -53.348
  H      504.184     -85.163     -54.696
  H      502.625     -85.802     -54.231

 6  7  8  9  10  11  12  13  14  15  25  28  32  33  34  35 0
 6-311+G(2d,p)
 ****
 36  39  40 0
 6-311+G(2d,p)
 ****
 1  2  3  4  5  16  17  18  19  20  21  22  23  24 0
 3-21G
 ****
 26  27  29  30  31  37  38  41  42  43  44  45  46  47 0
 3-21G
 ****
 48 0
 3-21G
 ****


