%nproc=1
%NoSave
%Mem=1900MB
#P OB98/GEN NMR

erre ene a

0 1
  C       52.709     506.872     259.008
  O       53.169     506.528     257.714
  H       51.695     507.273     258.928
  H       53.359     507.636     259.450
  H       52.689     505.990     259.653
  P       54.687     506.013     257.613
  C       55.185     508.573     257.634
  O       55.482     507.303     257.080
  C       56.453     509.408     257.731
  O       56.147     510.761     258.118
  C       57.457     508.908     258.768
  O       58.211     507.796     258.311
  C       58.316     510.145     258.934
  O       59.206     510.277     257.805
  C       57.246     511.258     258.932
  N       56.775     511.606     260.271
  C       57.437     512.664     260.916
  O       58.372     513.247     260.364
  N       57.045     513.013     262.189
  C       56.068     512.372     262.768
  N       55.738     512.751     264.030
  C       55.336     511.274     262.116
  C       55.738     510.947     260.891
  O       54.675     505.059     256.325
  O       55.256     505.385     258.844
  H       59.703     511.103     257.934
  H       55.600     504.784     256.102
  H       54.542     510.763     262.639
  H       55.246     510.141     260.351
  H       57.628     512.171     258.444
  H       58.940     510.117     259.829
  H       56.967     508.688     259.724
  H       56.906     509.451     256.727
  H       56.293     513.474     264.468
  H       54.752     508.426     258.634
  H       55.121     512.205     264.617
  H       54.451     509.094     257.008
  P       58.082     506.421     259.142
  C       60.574     506.932     259.683
  O       59.575     505.940     259.483
  O       57.602     505.374     258.031
  O       57.144     506.470     260.310
  H       56.952     504.748     258.389
  H       61.509     506.458     259.900
  H       60.294     507.560     260.502
  H       60.671     507.524     258.797

 6  7  8  9  10  11  12  13  14  15  16  26  30  31  32  33  35 0
 6-311+G(2d,p)
 ****
 37  38 0
 6-311+G(2d,p)
 ****
 1  2  3  4  5  17  18  19  20  21  22  23  24  25 0
 3-21G
 ****
 27  28  29  34  36  39  40  41  42  43  44  45  46 0
 3-21G
 ****


