%nproc=1
%NoSave
%Mem=1900MB
#P OB98/GEN NMR

erre ene a

0 1
  C     -172.692    -563.407     120.026
  O     -172.830    -563.782     118.667
  H     -172.321    -562.375     120.066
  H     -171.977    -564.062     120.526
  H     -173.663    -563.448     120.530
  P     -173.366    -565.264     118.381
  C     -171.152    -566.588     118.718
  O     -172.431    -566.260     119.247
  C     -170.361    -567.425     119.719
  O     -171.128    -568.628     120.035
  C     -168.991    -567.889     119.217
  O     -168.055    -567.850     120.297
  C     -169.219    -569.332     118.812
  O     -168.029    -570.095     118.798
  C     -170.237    -569.751     119.876
  N     -169.809    -574.752     119.396
  C     -168.906    -573.812     119.867
  N     -167.707    -574.269     120.262
  N     -169.162    -572.523     119.940
  C     -170.420    -572.209     119.529
  C     -171.397    -573.041     119.033
  C     -171.102    -574.460     118.941
  O     -171.847    -575.332     118.527
  N     -172.529    -572.327     118.692
  C     -172.235    -571.064     118.978
  N     -170.951    -570.954     119.485
  O     -172.892    -565.543     116.874
  O     -174.831    -565.470     118.565
  H     -167.687    -570.146     119.716
  H     -173.511    -566.152     116.423
  H     -169.546    -575.717     119.357
  H     -172.872    -570.214     118.840
  H     -169.772    -569.971     120.842
  H     -169.673    -569.372     117.811
  H     -167.436    -575.249     120.272
  H     -168.612    -567.271     118.386
  H     -167.022    -573.594     120.619
  H     -170.272    -566.863     120.656
  H     -170.606    -565.663     118.503
  H     -171.275    -567.152     117.783
  P     -166.820    -566.838     120.177
  C     -165.204    -568.406     118.870
  O     -165.965    -567.218     118.859
  O     -165.853    -567.303     121.390
  O     -167.188    -565.398     120.316
  H     -165.874    -566.651     122.098
  H     -164.700    -568.515     117.933
  H     -165.852    -569.243     119.026
  H     -164.483    -568.361     119.660

 6  7  8  9  10  11  12  13  14  15  26  29  33  34 0
 6-311+G(2d,p)
 ****
 36  38  39  40  41 0
 6-311+G(2d,p)
 ****
 1  2  3  4  5  16  17  18  19  20  21  22  23  24  25 0
 3-21G
 ****
 27  28  30  31  32  35  37  42  43  44  45  46  47 0
 3-21G
 ****
 48  49 0
 3-21G
 ****


