%nproc=1
%NoSave
%Mem=1900MB
#P OB98/GEN NMR

erre ene a

0 1
  C      368.679    -328.534     142.448
  O      367.453    -328.049     142.975
  P      366.112    -328.855     142.634
  C      364.718    -329.409     140.513
  O      365.895    -328.815     141.044
  C      364.750    -329.411     138.983
  O      365.892    -330.187     138.518
  C      363.498    -330.017     138.341
  O      363.215    -329.332     137.111
  C      363.927    -331.430     137.989
  O      363.125    -331.971     136.943
  C      365.391    -331.194     137.617
  N      367.773    -334.779     134.960
  C      367.300    -333.548     134.547
  N      367.403    -333.275     133.230
  N      366.783    -332.660     135.355
  C      366.738    -333.074     136.646
  C      367.189    -334.259     137.179
  C      367.750    -335.236     136.274
  O      368.157    -336.358     136.568
  N      367.007    -334.302     138.540
  C      366.404    -333.165     138.825
  N      366.192    -332.399     137.707
  O      364.965    -327.888     143.197
  O      366.022    -330.206     143.261
  H      363.307    -331.439     136.143
  H      364.602    -328.250     144.026
  H      368.152    -335.434     134.298
  H      366.090    -332.855     139.814
  H      365.490    -330.804     136.597
  H      363.833    -332.080     138.867
  H      367.728    -333.946     132.542
  H      362.602    -329.991     138.978
  H      367.026    -332.400     132.888
  H      364.902    -328.380     138.635
  H      363.850    -328.849     140.853
  H      364.632    -330.435     140.889
  P      361.661    -329.116     136.765
  C      359.625    -330.723     136.503
  O      360.992    -330.572     136.830
  O      361.679    -328.778     135.200
  O      360.991    -328.053     137.574
  H      360.888    -328.250     134.960
  H      359.543    -331.363     135.621
  H      359.141    -329.766     136.294
  H      359.112    -331.202     137.338
  H      369.479    -327.895     142.760
  H      368.628    -328.546     141.379
  H      368.854    -329.526     142.808

 3  4  5  6  7  8  9  10  11  12  23  26  30  31 0
 6-311+G(2d,p)
 ****
 33  35  36  37  38 0
 6-311+G(2d,p)
 ****
 1  2  13  14  15  16  17  18  19  20  21  22  24  25 0
 3-21G
 ****
 27  28  29  32  34  39  40  41  42  43  44  45  46  47  48  49 0
 3-21G
 ****


