%nproc=1
%NoSave
%Mem=1900MB
#P OB98/GEN NMR

erre ene a

0 1
  C       92.155     288.948    -203.698
  O       90.887     289.413    -204.112
  P       90.660     290.973    -204.394
  C       89.071     292.362    -202.926
  O       90.319     291.677    -202.994
  C       87.937     291.378    -202.651
  O       88.247     290.565    -201.496
  C       86.601     292.035    -202.338
  O       85.988     292.518    -203.519
  C       85.857     290.895    -201.655
  O       85.299     290.000    -202.631
  C       86.989     290.200    -200.883
  N       86.283     288.437    -196.146
  C       86.039     287.890    -197.356
  N       86.217     288.441    -198.579
  C       86.682     289.694    -198.464
  C       86.945     290.399    -197.298
  C       86.750     289.707    -196.090
  N       87.056     290.231    -194.852
  N       87.377     291.682    -197.593
  C       87.364     291.748    -198.909
  N       87.013     290.553    -199.473
  O       89.722     291.292    -205.508
  O       92.132     291.518    -204.720
  H       84.873     289.272    -202.148
  H       92.148     291.886    -205.623
  H       85.658     286.873    -197.344
  H       87.617     292.625    -199.490
  H       86.916     289.108    -200.942
  H       85.037     291.244    -201.023
  H       86.748     292.852    -201.619
  H       87.846     290.709    -203.515
  H       88.901     292.864    -203.886
  H       87.017     289.599    -194.070
  H       87.678     291.036    -194.809
  H       89.116     293.117    -202.137
  P       84.809     293.596    -203.421
  C       82.699     292.575    -204.465
  O       83.438     292.778    -203.274
  O       84.812     294.656    -204.473
  O       85.002     294.232    -201.961
  H       84.720     295.166    -201.975
  H       82.162     293.493    -204.722
  H       81.976     291.773    -204.298
  H       83.358     292.294    -205.291
  H       92.118     287.888    -203.559
  H       92.424     289.420    -202.776
  H       92.883     289.185    -204.446

 3  4  5  6  7  8  9  10  11  12  22  25  29  30  31  32 0
 6-311+G(2d,p)
 ****
 33  36  37 0
 6-311+G(2d,p)
 ****
 1  2  13  14  15  16  17  18  19  20  21  23  24  26 0
 3-21G
 ****
 27  28  34  35  38  39  40  41  42  43  44  45  46  47  48 0
 3-21G
 ****


