%nproc=1
%NoSave
%Mem=1900MB
#P OB98/GEN NMR

erre ene a

0 1
  C     -104.060     162.690    -144.412
  O     -103.380     161.520    -143.943
  P     -101.873     161.185    -144.381
  C     -100.914     160.892    -142.018
  O     -101.155     160.265    -143.274
  C     -100.477     159.904    -140.926
  O     -101.619     159.190    -140.381
  C      -99.468     158.840    -141.382
  O      -98.661     158.548    -140.238
  C     -100.374     157.665    -141.712
  O      -99.692     156.419    -141.752
  C     -101.400     157.782    -140.589
  N     -103.582     153.287    -141.714
  C     -102.346     153.597    -141.264
  N     -101.852     154.811    -140.953
  C     -102.786     155.764    -141.102
  C     -104.090     155.597    -141.543
  C     -104.481     154.286    -141.869
  N     -105.721     153.970    -142.371
  N     -104.748     156.812    -141.600
  C     -103.849     157.694    -141.212
  N     -102.649     157.111    -140.897
  O     -101.071     162.380    -144.789
  O     -102.040     160.192    -145.629
  H     -100.349     155.716    -141.904
  H     -101.435     160.472    -146.343
  H     -101.664     152.760    -141.146
  H     -104.003     158.764    -141.161
  H     -101.015     157.363    -139.652
  H     -100.830     157.829    -142.696
  H      -98.853     159.156    -142.227
  H     -100.057     160.493    -140.099
  H     -101.832     161.399    -141.700
  H     -105.876     153.017    -142.664
  H     -106.359     154.714    -142.615
  H     -100.140     161.656    -142.151
  P      -97.062     158.625    -140.294
  C      -96.967     158.693    -137.739
  O      -96.524     158.031    -138.909
  O      -96.511     159.965    -140.656
  O      -96.641     157.509    -141.364
  H      -95.736     157.688    -141.681
  H      -96.417     159.630    -137.617
  H      -96.779     158.053    -136.873
  H      -98.039     158.907    -137.792
  H     -105.047     162.718    -144.000
  H     -104.120     162.664    -145.480
  H     -103.521     163.562    -144.106

 3  4  5  6  7  8  9  10  11  12  22  25  29  30  31  32 0
 6-311+G(2d,p)
 ****
 33  36  37 0
 6-311+G(2d,p)
 ****
 1  2  13  14  15  16  17  18  19  20  21  23  24  26 0
 3-21G
 ****
 27  28  34  35  38  39  40  41  42  43  44  45  46  47  48 0
 3-21G
 ****


