%nproc=1
%NoSave
%Mem=1900MB
#P OB98/GEN NMR

erre ene a

0 1
  C     -133.639    -213.814     -22.794
  O     -132.753    -214.083     -21.708
  P     -133.034    -215.139     -20.547
  C     -134.862    -215.449     -18.690
  O     -134.298    -214.632     -19.706
  C     -135.395    -214.642     -17.492
  O     -134.284    -214.033     -16.784
  C     -136.284    -213.494     -17.972
  O     -137.648    -213.727     -18.274
  C     -136.056    -212.381     -16.961
  O     -137.027    -212.381     -15.915
  C     -134.665    -212.694     -16.400
  N     -133.341    -207.784     -16.955
  C     -134.545    -208.322     -16.542
  N     -135.542    -207.446     -16.291
  N     -134.755    -209.604     -16.405
  C     -133.704    -210.371     -16.774
  C     -132.467    -209.956     -17.217
  C     -132.224    -208.531     -17.310
  O     -131.173    -208.001     -17.658
  N     -131.658    -211.021     -17.518
  C     -132.409    -212.076     -17.283
  N     -133.661    -211.734     -16.821
  O     -131.838    -215.577     -19.770
  O     -133.596    -216.426     -21.342
  H     -136.802    -213.103     -15.299
  H     -133.303    -217.213     -20.841
  H     -133.226    -206.789     -17.020
  H     -132.096    -213.106     -17.419
  H     -134.669    -212.677     -15.303
  H     -136.124    -211.398     -17.445
  H     -135.481    -206.462     -16.492
  H     -135.851    -213.127     -18.914
  H     -136.481    -207.843     -16.202
  H     -135.889    -215.297     -16.772
  H     -134.075    -216.137     -18.367
  H     -135.661    -216.064     -19.107
  P     -138.362    -213.477     -19.685
  C     -139.776    -211.611     -20.729
  O     -138.813    -211.942     -19.746
  O     -139.760    -214.246     -19.552
  O     -137.598    -213.959     -20.875
  H     -140.160    -214.377     -20.431
  H     -139.772    -210.529     -20.883
  H     -140.769    -211.919     -20.386
  H     -139.550    -212.106     -21.679
  H     -133.210    -213.066     -23.427
  H     -134.575    -213.464     -22.412
  H     -133.796    -214.710     -23.357

 3  4  5  6  7  8  9  10  11  12  23  26  30  31 0
 6-311+G(2d,p)
 ****
 33  35  36  37  38 0
 6-311+G(2d,p)
 ****
 1  2  13  14  15  16  17  18  19  20  21  22  24  25 0
 3-21G
 ****
 27  28  29  32  34  39  40  41  42  43  44  45  46  47  48  49 0
 3-21G
 ****


