%nproc=1
%NoSave
%Mem=1900MB
#P OB98/GEN NMR

erre ene a

0 1
  C       57.983     -22.494     -41.412
  O       56.611     -22.739     -41.659
  H       58.561     -23.358     -41.750
  H       58.148     -22.356     -40.340
  H       58.319     -21.607     -41.958
  P       55.618     -21.499     -41.450
  C       55.553     -21.988     -38.874
  O       55.746     -21.038     -39.913
  C       55.980     -21.393     -37.535
  O       57.286     -20.791     -37.635
  C       55.097     -20.257     -37.047
  O       53.840     -20.704     -36.587
  C       55.972     -19.672     -35.946
  O       55.812     -20.378     -34.710
  C       57.397     -19.880     -36.515
  N       58.019     -18.622     -36.884
  C       59.123     -18.248     -36.106
  O       59.514     -18.980     -35.196
  N       59.724     -17.042     -36.357
  C       59.252     -16.265     -37.281
  N       59.875     -15.068     -37.457
  C       58.090     -16.620     -38.122
  C       57.526     -17.802     -37.872
  O       54.180     -22.196     -41.504
  O       55.795     -20.385     -42.426
  H       54.846     -20.459     -34.563
  H       54.103     -22.981     -40.936
  H       57.743     -15.943     -38.889
  H       56.669     -18.143     -38.441
  H       58.038     -20.374     -35.773
  H       55.726     -18.625     -35.749
  H       54.986     -19.499     -37.834
  H       56.026     -22.208     -36.798
  H       60.631     -14.841     -36.822
  H       56.118     -22.904     -39.080
  H       59.548     -14.352     -38.090
  H       54.491     -22.250     -38.855
  P       52.485     -19.972     -37.025
  C       51.724     -19.464     -34.616
  O       52.133     -18.915     -35.864
  O       51.358     -20.878     -37.391
  O       52.960     -19.010     -38.215
  H       53.638     -18.357     -37.968
  H       51.518     -18.671     -33.928
  H       52.505     -20.082     -34.225
  H       50.841     -20.052     -34.757

 6  7  8  9  10  11  12  13  14  15  16  26  30  31  32  33  35 0
 6-311+G(2d,p)
 ****
 37  38 0
 6-311+G(2d,p)
 ****
 1  2  3  4  5  17  18  19  20  21  22  23  24  25 0
 3-21G
 ****
 27  28  29  34  36  39  40  41  42  43  44  45  46 0
 3-21G
 ****


