%nproc=1
%NoSave
%Mem=1900MB
#P OB98/GEN NMR

erre ene a

0 1
  C      491.374    -604.709     107.326
  O      491.169    -603.330     107.555
  H      491.102    -604.935     106.292
  H      490.736    -605.300     107.987
  H      492.424    -604.976     107.481
  P      491.583    -602.708     108.975
  C      492.935    -600.546     109.322
  O      491.772    -601.128     108.751
  C      493.036    -599.072     108.951
  O      493.460    -598.971     107.564
  C      491.718    -598.305     109.098
  O      492.011    -596.992     109.579
  C      491.199    -598.221     107.673
  O      490.347    -597.096     107.473
  C      492.494    -598.158     106.868
  N      491.203    -596.776     102.185
  C      491.371    -596.013     103.324
  N      491.142    -594.686     103.209
  N      491.737    -596.506     104.479
  C      491.947    -597.849     104.442
  C      491.811    -598.709     103.383
  C      491.396    -598.154     102.112
  O      491.217    -598.777     101.075
  N      492.089    -600.008     103.756
  C      492.389    -599.919     105.037
  N      492.308    -598.634     105.505
  O      492.735    -603.378     109.656
  O      490.244    -602.800     109.844
  H      490.258    -596.967     106.503
  H      490.275    -603.570     110.446
  H      490.911    -596.340     101.320
  H      492.667    -600.753     105.671
  H      492.892    -597.133     106.795
  H      490.630    -599.128     107.434
  H      490.876    -594.234     102.347
  H      491.011    -598.801     109.767
  H      491.283    -594.103     104.029
  H      493.828    -598.616     109.554
  H      493.810    -601.088     108.943
  H      492.898    -600.660     110.414
  P      491.940    -596.715     111.159
  C      492.613    -594.736     112.659
  O      492.089    -595.139     111.395
  O      492.821    -597.577     112.001
  O      490.393    -596.968     111.491
  H      490.320    -597.297     112.415
  H      492.666    -593.668     112.699
  H      493.593    -595.146     112.786
  H      491.973    -595.091     113.440

 6  7  8  9  10  11  12  13  14  15  26  29  33  34 0
 6-311+G(2d,p)
 ****
 36  38  39  40  41 0
 6-311+G(2d,p)
 ****
 1  2  3  4  5  16  17  18  19  20  21  22  23  24  25 0
 3-21G
 ****
 27  28  30  31  32  35  37  42  43  44  45  46  47 0
 3-21G
 ****
 48  49 0
 3-21G
 ****


