%nproc=1
%NoSave
%Mem=1900MB
#P OB98/GEN NMR

erre ene a

0 1
  C       30.871    -361.898    -408.278
  O       30.066    -361.001    -409.018
  H       31.800    -361.410    -407.973
  H       30.325    -362.203    -407.380
  H       31.093    -362.788    -408.874
  P       30.684    -360.434    -410.387
  C       33.141    -359.992    -411.103
  O       32.193    -360.015    -410.045
  C       33.797    -358.617    -411.175
  O       34.657    -358.413    -410.029
  C       34.684    -358.407    -412.399
  O       33.936    -358.070    -413.550
  C       35.531    -357.235    -411.932
  O       34.768    -356.019    -412.020
  C       35.781    -357.600    -410.460
  N       40.888    -357.276    -410.249
  C       39.935    -356.353    -410.505
  N       38.598    -356.521    -410.542
  C       38.269    -357.797    -410.292
  C       39.130    -358.850    -410.024
  C       40.502    -358.552    -409.999
  N       41.477    -359.493    -409.759
  N       38.424    -360.029    -409.850
  C       37.160    -359.679    -409.974
  N       37.015    -358.346    -410.253
  O       29.949    -359.025    -410.577
  O       30.538    -361.321    -411.578
  H       34.399    -355.985    -412.926
  H       29.995    -358.748    -411.510
  H       40.294    -355.349    -410.697
  H       36.318    -360.352    -409.876
  H       35.823    -356.717    -409.810
  H       36.434    -357.095    -412.528
  H       35.334    -359.274    -412.577
  H       33.005    -357.858    -411.136
  H       32.633    -360.199    -412.047
  H       42.430    -359.217    -409.945
  H       41.205    -360.464    -409.722
  H       33.895    -360.764    -410.925
  P       34.757    -357.653    -414.869
  C       36.196    -355.557    -415.418
  O       35.092    -356.095    -414.696
  O       33.642    -357.674    -416.014
  O       35.917    -358.536    -415.190
  H       34.040    -357.846    -416.885
  H       36.291    -354.514    -415.200
  H       36.034    -355.688    -416.467
  H       37.093    -356.065    -415.129

 6  7  8  9  10  11  12  13  14  15  25  28  32  33  34  35 0
 6-311+G(2d,p)
 ****
 36  39  40 0
 6-311+G(2d,p)
 ****
 1  2  3  4  5  16  17  18  19  20  21  22  23  24 0
 3-21G
 ****
 26  27  29  30  31  37  38  41  42  43  44  45  46  47 0
 3-21G
 ****
 48 0
 3-21G
 ****


