%nproc=1
%NoSave
%Mem=1900MB
#P OB98/GEN NMR

erre ene a

0 1
  C      -68.885     157.316     232.207
  O      -67.918     158.345     232.280
  P      -66.676     158.373     231.272
  C      -68.206     159.668     229.682
  O      -67.255     158.618     229.795
  C      -69.005     159.558     228.383
  O      -70.163     160.437     228.461
  C      -68.230     159.933     227.117
  O      -68.720     159.094     226.063
  C      -68.670     161.368     226.867
  O      -68.467     161.784     225.521
  C      -70.130     161.281     227.290
  N      -71.214     165.935     225.477
  C      -70.585     164.879     224.917
  N      -70.315     163.680     225.474
  C      -70.761     163.632     226.741
  C      -71.390     164.640     227.453
  C      -71.630     165.840     226.761
  N      -72.297     166.918     227.301
  N      -71.644     164.229     228.748
  C      -71.180     162.999     228.809
  N      -70.698     162.574     227.603
  O      -65.737     157.217     231.387
  O      -65.937     159.749     231.606
  H      -69.009     161.220     224.940
  H      -65.109     159.573     232.101
  H      -70.269     165.006     223.886
  H      -71.170     162.375     229.695
  H      -70.757     160.816     226.521
  H      -68.105     162.043     227.521
  H      -67.144     159.836     227.213
  H      -69.393     158.531     228.308
  H      -67.666     160.618     229.689
  H      -72.534     167.671     226.677
  H      -72.847     166.780     228.148
  H      -68.884     159.653     230.547
  P      -67.734     158.636     224.882
  C      -67.178     156.440     226.084
  O      -66.663     157.648     225.544
  O      -67.166     159.741     224.059
  O      -68.644     157.647     224.004
  H      -68.240     157.533     223.120
  H      -67.595     156.636     227.073
  H      -66.363     155.716     226.173
  H      -67.953     156.024     225.436
  H      -69.630     157.473     232.959
  H      -68.411     156.370     232.365
  H      -69.345     157.327     231.241

 3  4  5  6  7  8  9  10  11  12  22  25  29  30  31  32 0
 6-311+G(2d,p)
 ****
 33  36  37 0
 6-311+G(2d,p)
 ****
 1  2  13  14  15  16  17  18  19  20  21  23  24  26 0
 3-21G
 ****
 27  28  34  35  38  39  40  41  42  43  44  45  46  47  48 0
 3-21G
 ****


