%nproc=1
%NoSave
%Mem=1900MB
#P OB98/GEN NMR

erre ene a

0 1
  C     -891.260     262.089     359.667
  O     -892.360     262.005     358.792
  P     -892.210     261.359     357.342
  C     -894.300     259.870     357.286
  O     -892.880     259.906     357.365
  C     -894.840     258.690     358.110
  O     -894.290     258.732     359.451
  C     -896.360     258.705     358.284
  O     -897.020     258.266     357.102
  C     -896.530     257.770     359.485
  O     -896.480     256.395     359.066
  C     -895.280     258.120     360.318
  N     -897.550     258.495     364.891
  C     -897.560     257.524     363.956
  N     -896.960     257.501     362.745
  C     -896.320     258.660     362.523
  C     -896.260     259.786     363.371
  C     -896.890     259.656     364.606
  N     -896.840     260.629     365.608
  N     -895.530     260.795     362.775
  C     -895.170     260.326     361.595
  N     -895.570     259.031     361.423
  O     -890.820     261.406     356.768
  O     -893.220     262.205     356.424
  H     -895.560     256.254     358.724
  H     -892.720     262.656     355.718
  H     -898.110     256.616     364.215
  H     -894.620     260.860     360.850
  H     -894.820     257.218     360.750
  H     -897.480     257.938     360.005
  H     -896.700     259.716     358.558
  H     -894.510     257.762     357.630
  H     -894.590     259.755     356.240
  H     -897.200     260.367     366.503
  H     -896.110     261.325     365.542
  H     -894.710     260.809     357.662
  P     -897.860     259.307     356.229
  C     -897.550     257.878     354.109
  O     -897.370     259.147     354.709
  O     -897.900     260.718     356.744
  O     -899.330     258.653     356.197
  H     -900.000     259.369     356.169
  H     -896.770     257.196     354.463
  H     -897.480     257.995     353.028
  H     -898.540     257.458     354.367
  H     -891.567     262.551     360.582
  H     -890.487     262.674     359.213
  H     -890.890     261.106     359.870

 3  4  5  6  7  8  9  10  11  12  22  25  29  30  31  32 0
 6-311+G(2d,p)
 ****
 33  36  37 0
 6-311+G(2d,p)
 ****
 1  2  13  14  15  16  17  18  19  20  21  23  24  26 0
 3-21G
 ****
 27  28  34  35  38  39  40  41  42  43  44  45  46  47  48 0
 3-21G
 ****


