%nproc=1
%NoSave
%Mem=1900MB
#P OB98/GEN NMR

erre ene a

0 1
  C      -26.148     289.263    -119.358
  O      -26.155     288.344    -118.283
  H      -27.169     289.568    -119.601
  H      -25.579     290.149    -119.061
  H      -25.673     288.816    -120.235
  P      -26.935     286.962    -118.515
  C      -24.592     285.840    -118.595
  O      -25.874     285.972    -119.201
  C      -23.612     285.239    -119.598
  O      -23.305     286.202    -120.632
  C      -22.272     284.833    -118.999
  O      -22.331     283.573    -118.356
  C      -21.413     284.776    -120.251
  O      -21.690     283.560    -120.973
  C      -21.925     285.990    -121.038
  N      -17.371     288.260    -121.580
  C      -17.810     287.030    -121.915
  N      -19.036     286.501    -121.732
  C      -19.852     287.383    -121.135
  C      -19.544     288.671    -120.726
  C      -18.232     289.115    -120.977
  N      -17.775     290.364    -120.621
  N      -20.632     289.264    -120.116
  C      -21.588     288.360    -120.187
  N      -21.163     287.205    -120.784
  O      -27.944     287.296    -119.715
  O      -27.633     286.403    -117.321
  H      -22.570     283.673    -121.380
  H      -28.677     286.652    -119.724
  H      -17.078     286.383    -122.392
  H      -22.598     288.494    -119.822
  H      -21.921     285.822    -122.118
  H      -20.343     284.787    -120.038
  H      -21.877     285.609    -118.329
  H      -24.101     284.381    -120.077
  H      -24.673     285.180    -117.727
  H      -16.780     290.511    -120.678
  H      -18.365     290.942    -120.042
  H      -24.247     286.826    -118.267
  P      -22.347     283.561    -116.752
  C      -24.633     282.325    -116.608
  O      -23.893     283.511    -116.330
  O      -21.904     285.049    -116.373
  O      -21.468     282.529    -116.124
  H      -21.482     285.077    -115.492
  H      -25.641     282.446    -116.270
  H      -24.183     281.497    -116.101
  H      -24.630     282.142    -117.662

 6  7  8  9  10  11  12  13  14  15  25  28  32  33  34  35 0
 6-311+G(2d,p)
 ****
 36  39  40 0
 6-311+G(2d,p)
 ****
 1  2  3  4  5  16  17  18  19  20  21  22  23  24 0
 3-21G
 ****
 26  27  29  30  31  37  38  41  42  43  44  45  46  47 0
 3-21G
 ****
 48 0
 3-21G
 ****


