%nproc=1
%NoSave
%Mem=1900MB
#P OB98/GEN NMR

erre ene a

0 1
  C       77.195    -195.100     -39.090
  O       77.092    -193.714     -38.815
  H       76.999    -195.262     -40.152
  H       76.456    -195.655     -38.506
  H       78.202    -195.455     -38.857
  P       77.371    -193.263     -37.301
  C       78.747    -191.251     -38.176
  O       77.634    -191.684     -37.403
  C       78.503    -189.848     -38.728
  O       77.518    -189.880     -39.777
  C       77.975    -188.853     -37.699
  O       79.035    -188.338     -36.905
  C       77.388    -187.786     -38.610
  O       78.439    -186.940     -39.112
  C       76.793    -188.621     -39.760
  N       72.241    -188.282     -42.115
  C       73.450    -187.763     -42.420
  N       74.607    -187.859     -41.725
  C       74.432    -188.580     -40.606
  C       73.258    -189.171     -40.165
  C       72.126    -189.011     -40.979
  N       70.894    -189.551     -40.667
  N       73.460    -189.832     -38.971
  C       74.746    -189.685     -38.723
  N       75.372    -188.904     -39.665
  O       78.394    -194.060     -36.566
  O       75.891    -193.323     -36.687
  H       78.045    -186.344     -39.778
  H       75.239    -193.005     -37.337
  H       73.497    -187.196     -43.343
  H       75.277    -190.135     -37.891
  H       76.949    -188.140     -40.733
  H       76.677    -187.139     -38.090
  H       77.175    -189.287     -37.092
  H       79.442    -189.493     -39.172
  H       78.931    -191.948     -39.000
  H       70.101    -189.246     -41.213
  H       70.780    -189.984     -39.764
  H       79.623    -191.250     -37.520
  P       78.839    -188.110     -35.330
  C       81.356    -187.960     -34.819
  O       80.111    -187.268     -34.828
  O       78.563    -189.346     -34.542
  O       77.642    -187.057     -35.221
  H       77.066    -187.272     -34.462
  H       82.126    -187.305     -34.469
  H       81.590    -188.287     -35.811
  H       81.288    -188.809     -34.171

 6  7  8  9  10  11  12  13  14  15  25  28  32  33  34  35 0
 6-311+G(2d,p)
 ****
 36  39  40 0
 6-311+G(2d,p)
 ****
 1  2  3  4  5  16  17  18  19  20  21  22  23  24 0
 3-21G
 ****
 26  27  29  30  31  37  38  41  42  43  44  45  46  47 0
 3-21G
 ****
 48 0
 3-21G
 ****


