%nproc=1
%NoSave
%Mem=1900MB
#P OB98/GEN NMR

erre ene a

0 1
  C      656.312     220.086     212.283
  O      657.599     220.481     211.838
  H      656.264     218.994     212.268
  H      655.543     220.483     211.613
  H      656.138     220.433     213.301
  P      657.887     222.060     211.803
  C      660.356     221.332     211.422
  O      659.313     222.241     211.090
  C      661.328     221.208     210.254
  O      661.843     222.512     209.901
  C      662.556     220.357     210.557
  O      662.279     218.972     210.488
  C      663.515     220.835     209.469
  O      663.283     220.163     208.228
  C      663.163     222.324     209.345
  N      667.991     224.009     209.324
  C      667.300     223.230     208.458
  N      666.003     222.838     208.523
  C      665.412     223.354     209.622
  C      665.990     224.158     210.593
  C      667.343     224.485     210.419
  N      668.058     225.249     211.312
  N      665.080     224.450     211.593
  C      663.973     223.842     211.218
  N      664.128     223.173     210.039
  O      658.182     222.406     213.344
  O      656.786     222.898     211.251
  H      663.542     219.232     208.371
  H      657.387     222.795     213.749
  H      667.849     222.885     207.581
  H      663.034     223.844     211.784
  H      663.135     222.660     208.295
  H      664.544     220.646     209.764
  H      662.966     220.624     211.540
  H      660.781     220.811     209.387
  H      659.925     220.344     211.638
  H      660.873     221.701     212.319
  H      669.050     225.389     211.158
  H      667.627     225.516     212.182
  P      663.366     217.966     211.100
  C      661.562     216.191     211.743
  O      662.743     216.484     211.020
  O      663.358     218.292     212.678
  O      664.739     218.099     210.517
  H      664.262     218.217     213.029
  H      661.288     215.170     211.580
  H      660.772     216.830     211.409
  H      661.734     216.351     212.787

 6  7  8  9  10  11  12  13  14  15  25  28  32  33  34  35 0
 6-311+G(2d,p)
 ****
 36  37  40 0
 6-311+G(2d,p)
 ****
 1  2  3  4  5  16  17  18  19  20  21  22  23  24 0
 3-21G
 ****
 26  27  29  30  31  38  39 41  42  43  44  45  46  47  48 0
 3-21G
 ****


