%nproc=1
%NoSave
%Mem=1900MB
#P OB98/GEN NMR

erre ene a

0 1
  C       58.543     -61.076      33.642
  O       57.642     -61.433      32.612
  H       57.967     -60.803      34.531
  H       59.150     -60.218      33.343
  H       59.190     -61.922      33.891
  P       58.236     -61.800      31.171
  C       57.847     -59.364      30.390
  O       58.779     -60.429      30.545
  C       58.575     -58.031      30.229
  O       59.323     -57.722      31.421
  C       59.585     -58.006      29.087
  O       58.926     -57.909      27.840
  C       60.420     -56.799      29.480
  O       59.751     -55.575      29.140
  C       60.493     -56.971      31.018
  N       61.714     -57.630      31.473
  C       62.891     -56.879      31.378
  O       62.863     -55.738      30.917
  N       64.069     -57.454      31.791
  C       64.068     -58.648      32.295
  N       65.266     -59.156      32.688
  C       62.845     -59.459      32.443
  C       61.717     -58.900      32.007
  O       57.335     -62.580      30.264
  O       59.581     -62.604      31.502
  H       60.299     -54.854      29.509
  H       59.410     -63.565      31.513
  H       62.889     -60.447      32.878
  H       60.773     -59.430      32.080
  H       60.429     -55.995      31.516
  H       61.389     -56.784      28.980
  H       60.224     -58.896      29.125
  H       57.817     -57.246      30.102
  H       66.076     -58.554      32.584
  H       57.225     -59.347      31.291
  H       65.363     -59.999      33.236
  H       57.196     -59.544      29.526
  P       59.354     -58.820      26.591
  C       60.685     -56.816      25.682
  O       60.725     -58.189      26.041
  O       58.296     -59.019      25.560
  O       59.849     -60.182      27.270
  H       59.073     -60.728      27.552
  H       61.649     -56.510      25.333
  H       60.414     -56.232      26.536
  H       59.962     -56.671      24.907

 6  7  8  9  10  11  12  13  14  15  16  26  30  31  32  33  35 0
 6-311+G(2d,p)
 ****
 37  38 0
 6-311+G(2d,p)
 ****
 1  2  3  4  5  17  18  19  20  21  22  23  24  25 0
 3-21G
 ****
 27  28  29  34  36  39  40  41  42  43  44  45  46 0
 3-21G
 ****


