%nproc=1
%NoSave
%Mem=1900MB
#P OB98/GEN NMR

erre ene a

0 1
  C       25.537     418.655    -253.940
  O       24.249     419.180    -253.669
  P       23.481     420.074    -254.762
  C       23.676     422.454    -255.680
  O       24.337     421.417    -254.977
  C       24.665     423.495    -256.199
  O       25.361     424.121    -255.076
  C       25.751     422.926    -257.141
  O       26.034     423.946    -258.100
  C       26.952     422.748    -256.206
  O       28.191     422.690    -256.896
  C       26.779     423.978    -255.314
  N       31.348     424.127    -253.017
  C       30.994     424.237    -254.308
  N       29.736     424.151    -254.857
  C       28.835     423.947    -253.904
  C       29.044     423.778    -252.542
  C       30.379     423.891    -252.085
  N       30.751     423.807    -250.763
  N       27.843     423.518    -251.878
  C       26.947     423.536    -252.835
  N       27.463     423.852    -254.055
  O       22.016     420.296    -254.483
  O       23.687     419.270    -256.139
  H       28.237     421.835    -257.378
  H       22.866     418.824    -256.400
  H       31.808     424.414    -255.010
  H       25.877     423.311    -252.703
  H       27.115     424.904    -255.810
  H       26.833     421.826    -255.626
  H       25.467     422.000    -257.635
  H       24.102     424.291    -256.709
  H       22.980     422.945    -254.969
  H       31.699     424.029    -250.551
  H       30.039     423.905    -250.044
  H       23.082     422.035    -256.509
  P       26.291     423.547    -259.651
  C       28.148     422.415    -260.987
  O       27.741     422.899    -259.720
  O       26.021     424.639    -260.634
  O       25.314     422.293    -259.870
  H       25.181     422.143    -260.822
  H       27.703     421.444    -261.161
  H       29.239     422.338    -261.030
  H       27.825     423.094    -261.803
  H       25.878     418.092    -253.096
  H       26.217     419.459    -254.131
  H       25.489     418.017    -254.798

 3  4  5  6  7  8  9  10  11  12  22  25  29  30  31  32 0
 6-311+G(2d,p)
 ****
 33  36  37 0
 6-311+G(2d,p)
 ****
 1  2  13  14  15  16  17  18  19  20  21  23  24  26 0
 3-21G
 ****
 27  28  34  35  38  39  40  41  42  43  44  45  46  47  48 0
 3-21G
 ****


