%nproc=1
%NoSave
%Mem=1900MB
#P OB98/GEN NMR

erre ene a

0 1
  C     -234.755     285.267    -621.883
  O     -236.005     285.146    -622.557
  P     -236.435     283.724    -623.142
  C     -238.315     283.181    -621.450
  O     -237.006     282.828    -621.930
  C     -238.482     282.737    -619.990
  O     -237.421     283.243    -619.152
  C     -239.762     283.248    -619.355
  O     -240.889     282.522    -619.838
  C     -239.467     283.081    -617.883
  O     -239.695     281.721    -617.452
  C     -237.950     283.400    -617.822
  N     -237.660     284.711    -617.274
  C     -236.903     284.735    -616.090
  O     -236.582     283.683    -615.547
  N     -236.582     285.961    -615.543
  C     -236.974     287.055    -616.112
  N     -236.619     288.228    -615.542
  C     -237.767     287.068    -617.368
  C     -238.069     285.879    -617.893
  O     -235.419     283.035    -624.001
  O     -237.769     284.064    -623.974
  H     -239.402     281.675    -616.530
  H     -237.836     283.439    -624.723
  H     -238.046     288.020    -617.823
  H     -238.645     285.796    -618.793
  H     -237.420     282.650    -617.192
  H     -240.075     283.721    -617.252
  H     -239.890     284.325    -619.580
  H     -238.463     281.627    -619.962
  H     -236.074     288.187    -614.678
  H     -239.071     282.690    -622.073
  H     -236.815     289.134    -615.951
  H     -238.458     284.262    -621.558
  P     -241.523     282.972    -621.240
  C     -240.796     280.765    -622.396
  O     -240.758     282.177    -622.403
  O     -241.011     284.489    -621.417
  O     -243.022     282.917    -621.298
  H     -241.674     285.019    -621.858
  H     -240.509     280.406    -623.387
  H     -241.792     280.397    -622.152
  H     -240.070     280.378    -621.673
  H     -234.622     286.277    -621.556
  H     -233.962     285.001    -622.551
  H     -234.742     284.614    -621.036

 3  4  5  6  7  8  9  10  11  12  13  23  27  28  29  30  32 0
 6-311+G(2d,p)
 ****
 34  35 0
 6-311+G(2d,p)
 ****
 1  2  14  15  16  17  18  19  20  21  22  24  25  26 0
 3-21G
 ****
 31  33  36  37  38  39  40  41  42  43  44  45  46 0
 3-21G
 ****


