%nproc=1
%NoSave
%Mem=1900MB
#P OB98/GEN NMR

erre ene a

0 1
  C     -336.899     -11.544     429.439
  O     -338.229     -11.355     429.000
  P     -338.786     -12.228     427.778
  C     -338.392     -10.507     425.863
  O     -339.326     -11.186     426.670
  C     -339.011      -9.247     425.227
  O     -340.045      -9.676     424.308
  C     -339.702      -8.308     426.221
  O     -339.853      -7.022     425.612
  C     -341.061      -8.965     426.385
  O     -342.042      -8.064     426.883
  C     -341.335      -9.515     424.950
  N     -342.048     -10.798     424.988
  C     -343.416     -10.749     425.275
  O     -344.037      -9.696     425.406
  N     -344.023     -11.966     425.480
  C     -343.398     -13.177     425.487
  O     -343.878     -14.195     425.971
  C     -342.018     -13.182     424.950
  C     -341.404     -12.017     424.761
  O     -340.130     -12.857     428.381
  O     -337.862     -13.265     427.262
  H     -341.929      -7.217     426.372
  H     -339.960     -13.758     428.704
  H     -344.982     -11.922     425.818
  H     -341.537     -14.138     424.800
  H     -340.374     -11.987     424.416
  H     -341.936      -8.817     424.358
  H     -340.982      -9.789     427.084
  H     -339.181      -8.211     427.176
  H     -338.251      -8.713     424.657
  H     -338.017     -11.183     425.078
  H     -337.512     -10.213     426.454
  P     -339.118      -5.762     426.270
  C     -341.196      -4.489     425.495
  O     -339.800      -4.461     425.647
  O     -337.622      -5.803     426.256
  O     -339.689      -5.780     427.776
  H     -339.120      -5.253     428.354
  H     -341.594      -3.473     425.567
  H     -341.685      -5.116     426.261
  H     -341.451      -4.886     424.494
  H     -336.696     -10.884     430.257
  H     -336.225     -11.334     428.635
  H     -336.769     -12.557     429.757

 3  4  5  6  7  8  9  10  11  12  13  23  28  29  30  31  32 0
 6-311+G(2d,p)
 ****
 33  34 0
 6-311+G(2d,p)
 ****
 1  2  14  15  16  17  18  19  20  21  22  24  25  26  27 0
 3-21G
 ****
 35  36  37  38  39  40  41  42  43  44  45 0
 3-21G
 ****


