%nproc=1
%NoSave
%Mem=1900MB
#P OB98/GEN NMR

erre ene a

0 1
  C       45.559     365.296       7.118
  O       45.371     363.927       6.788
  P       46.666     363.092       6.335
  C       47.140     360.561       6.015
  O       46.159     361.581       6.143
  C       46.484     359.220       5.705
  O       45.504     358.914       6.712
  C       45.733     359.177       4.384
  O       46.607     358.965       3.285
  C       44.827     357.973       4.600
  O       45.560     356.760       4.339
  C       44.489     358.081       6.097
  N       39.549     357.933       4.990
  C       40.586     357.142       4.531
  N       40.250     356.153       3.673
  N       41.834     357.307       4.877
  C       42.013     358.307       5.770
  C       41.069     359.159       6.299
  C       39.698     358.998       5.868
  O       38.750     359.709       6.193
  N       41.632     360.039       7.189
  C       42.904     359.698       7.228
  N       43.191     358.671       6.362
  O       47.538     363.021       7.673
  O       47.433     363.679       5.198
  H       45.880     356.813       3.417
  H       48.481     362.903       7.449
  H       38.605     357.750       4.705
  H       43.647     360.161       7.863
  H       44.535     357.102       6.587
  H       43.957     357.968       3.940
  H       39.297     355.896       3.472
  H       45.123     360.076       4.243
  H       40.993     355.540       3.352
  H       47.259     358.444       5.738
  H       47.697     360.474       6.956
  H       47.840     360.839       5.220
  P       45.915     358.746       1.849
  C       46.639     359.289      -0.587
  O       46.922     359.409       0.794
  O       44.672     359.749       1.884
  O       45.503     357.340       1.575
  H       43.968     359.435       1.284
  H       45.566     359.335      -0.780
  H       47.033     358.339      -0.958
  H       47.126     360.107      -1.120
  H       44.621     365.727       7.400
  H       45.950     365.817       6.269
  H       46.247     365.375       7.933

 3  4  5  6  7  8  9  10  11  12  23  26  30  31  33  0
 6-311+G(2d,p)
 ****
 35  36  37  38 0
 6-311+G(2d,p)
 ****
 1  2  13  14  15  16  17  18  19  20  21  22  24  25  27  28  29 0
 3-21G
 ****
 32  34  39  40  41  42  43  44  45  46  47  48  49 0
 3-21G
 ****


