%nproc=1
%NoSave
%Mem=1900MB
#P OB98/GEN NMR

erre ene a

0 1
  C      121.162     -81.195     296.451
  O      122.069     -81.621     295.460
  H      120.423     -80.537     295.986
  H      121.682     -80.629     297.228
  H      120.642     -82.049     296.892
  P      123.296     -82.571     295.873
  C      122.199     -84.734     295.030
  O      122.636     -84.009     296.173
  C      122.121     -86.233     295.325
  O      121.040     -86.486     296.265
  C      121.864     -87.095     294.080
  O      122.765     -88.205     294.067
  C      120.442     -87.594     294.280
  O      120.174     -88.806     293.578
  C      120.377     -87.679     295.807
  N      119.008     -87.775     296.294
  C      118.677     -88.949     296.979
  O      119.525     -89.828     297.147
  N      117.388     -89.125     297.406
  C      116.491     -88.228     297.132
  N      115.225     -88.478     297.559
  C      116.791     -86.987     296.387
  C      118.057     -86.824     296.006
  O      124.160     -82.033     296.963
  O      124.093     -82.827     294.509
  H      119.266     -89.105     293.808
  H      125.018     -83.089     294.724
  H      116.007     -86.276     296.179
  H      118.371     -85.947     295.453
  H      120.942     -88.546     296.176
  H      119.738     -86.834     293.918
  H      121.967     -86.543     293.146
  H      123.045     -86.535     295.834
  H      115.064     -89.345     298.058
  H      122.897     -84.542     294.206
  H      114.442     -87.868     297.383
  H      121.205     -84.372     294.751
  P      123.631     -88.400     292.729
  C      125.466     -86.725     293.480
  O      124.495     -87.066     292.501
  O      122.530     -88.351     291.568
  O      124.404     -89.676     292.702
  H      122.428     -89.238     291.171
  H      125.958     -85.819     293.194
  H      126.186     -87.513     293.558
  H      124.985     -86.587     294.426

 6  7  8  9  10  11  12  13  14  15  16  26  30  31  32  33  35 0
 6-311+G(2d,p)
 ****
 37  38 0
 6-311+G(2d,p)
 ****
 1  2  3  4  5  17  18  19  20  21  22  23  24  25 0
 3-21G
 ****
 27  28  29  34  36  39  40  41  42  43  44  45  46 0
 3-21G
 ****


