%nproc=1
%NoSave
%Mem=1900MB
#P OB98/GEN NMR

erre ene a

0 1
  C      209.191    -498.154     357.749
  O      208.087    -497.512     357.099
  P      208.375    -496.086     356.432
  C      207.009    -494.397     355.002
  O      206.980    -495.466     355.934
  C      205.718    -494.374     354.184
  O      205.559    -495.578     353.398
  C      204.458    -494.286     355.043
  O      204.283    -492.982     355.554
  C      203.403    -494.727     354.040
  O      203.052    -493.639     353.162
  C      204.140    -495.819     353.242
  N      200.560    -499.481     353.285
  C      200.581    -498.233     352.764
  N      201.569    -497.318     352.792
  C      202.637    -497.805     353.443
  C      202.773    -499.053     354.030
  C      201.669    -499.912     353.940
  N      201.649    -501.172     354.485
  N      204.020    -499.187     354.607
  C      204.617    -498.029     354.395
  N      203.832    -497.161     353.687
  O      209.134    -496.455     355.075
  O      209.194    -495.172     357.294
  H      202.355    -493.115     353.609
  H      210.077    -496.218     355.143
  H      199.669    -497.929     352.247
  H      205.617    -497.771     354.736
  H      203.922    -495.768     352.168
  H      202.476    -495.075     354.510
  H      204.519    -495.012     355.873
  H      205.760    -493.517     353.502
  H      207.865    -494.505     354.330
  H      200.787    -501.700     354.440
  H      202.434    -501.477     355.044
  H      207.150    -493.459     355.555
  P      204.639    -492.727     357.101
  C      204.845    -490.473     358.303
  O      204.101    -491.242     357.379
  O      206.224    -492.522     357.036
  O      204.158    -493.784     358.038
  H      206.478    -491.928     356.305
  H      204.393    -489.475     358.371
  H      205.882    -490.367     357.964
  H      204.821    -490.939     359.289
  H      208.871    -499.093     358.151
  H      209.550    -497.530     358.541
  H      209.976    -498.318     357.040

 3  4  5  6  7  8  9  10  11  12  22  25  29  30  31  32 0
 6-311+G(2d,p)
 ****
 33  36  37 0
 6-311+G(2d,p)
 ****
 1  2  13  14  15  16  17  18  19  20  21  23  24  26 0
 3-21G
 ****
 27  28  34  35  38  39  40  41  42  43  44  45  46  47  48 0
 3-21G
 ****


