%nproc=1
%NoSave
%Mem=1900MB
#P OB98/GEN NMR

erre ene a

0 1
  C      585.543     358.511    -251.430
  O      585.785     359.884    -251.209
  H      585.252     358.370    -252.473
  H      584.730     358.158    -250.789
  H      586.452     357.933    -251.239
  P      586.194     360.307    -249.714
  C      583.709     360.889    -249.261
  O      584.846     360.127    -248.865
  C      582.483     360.500    -248.436
  O      581.999     359.208    -248.847
  C      582.742     360.390    -246.938
  O      582.670     361.673    -246.325
  C      581.587     359.504    -246.503
  O      580.392     360.299    -246.360
  C      581.436     358.536    -247.691
  N      581.306     353.982    -245.333
  C      580.597     355.112    -245.133
  N      580.721     356.305    -245.761
  C      581.694     356.250    -246.690
  C      582.500     355.165    -246.998
  C      582.273     353.986    -246.281
  N      582.998     352.829    -246.486
  N      583.388     355.490    -248.002
  C      583.084     356.733    -248.328
  N      582.088     357.250    -247.540
  O      586.885     361.622    -249.581
  O      587.059     359.036    -249.263
  H      579.645     359.670    -246.306
  H      586.647     358.214    -249.577
  H      579.831     355.056    -244.366
  H      583.534     357.282    -249.141
  H      580.381     358.329    -247.913
  H      581.769     359.021    -245.540
  H      583.690     359.879    -246.721
  H      581.689     361.229    -248.645
  H      583.499     360.734    -250.325
  H      582.905     352.093    -245.797
  H      583.801     352.882    -247.096
  H      583.951     361.947    -249.104
  P      583.828     362.197    -245.348
  C      582.641     361.266    -243.264
  O      583.791     361.198    -244.093
  O      583.757     363.643    -245.021
  O      585.185     361.794    -246.094
  H      585.932     362.289    -245.715
  H      582.733     360.557    -242.468
  H      581.770     361.041    -243.843
  H      582.553     362.251    -242.856

 6  7  8  9  10  11  12  13  14  15  25  28  32  33  34  35 0
 6-311+G(2d,p)
 ****
 36  39  40 0
 6-311+G(2d,p)
 ****
 1  2  3  4  5  16  17  18  19  20  21  22  23  24 0
 3-21G
 ****
 26  27  29  30  31  37  38  41  42  43  44  45  46  47 0
 3-21G
 ****
 48 0
 3-21G
 ****


