%nproc=1
%NoSave
%Mem=1900MB
#P OB98/GEN NMR

erre ene a

0 1
  C      147.495    -437.563    -893.066
  O      147.691    -436.408    -893.857
  H      148.425    -437.850    -892.575
  H      146.749    -437.336    -892.297
  H      147.124    -438.386    -893.680
  P      148.746    -436.527    -895.061
  C      150.238    -434.622    -894.107
  O      150.139    -435.994    -894.471
  C      151.046    -434.485    -892.822
  O      150.470    -435.308    -891.780
  C      152.504    -434.947    -892.940
  O      153.325    -433.946    -893.528
  C      152.847    -435.167    -891.479
  O      153.079    -433.891    -890.845
  C      151.558    -435.793    -890.943
  N      153.010    -440.048    -888.487
  C      153.164    -438.741    -888.191
  N      152.751    -437.664    -888.907
  C      152.121    -438.056    -890.022
  C      151.892    -439.343    -890.459
  C      152.361    -440.385    -889.629
  N      152.217    -441.718    -889.931
  N      151.237    -439.352    -891.678
  C      151.044    -438.081    -891.945
  N      151.567    -437.246    -890.987
  O      148.307    -435.364    -896.071
  O      148.818    -437.864    -895.728
  H      153.159    -434.063    -889.891
  H      148.655    -435.541    -896.960
  H      153.693    -438.527    -887.271
  H      150.533    -437.700    -892.828
  H      151.338    -435.498    -889.914
  H      153.741    -435.762    -891.343
  H      152.583    -435.904    -893.486
  H      150.992    -433.434    -892.488
  H      149.230    -434.223    -893.947
  H      152.744    -442.369    -889.371
  H      151.873    -441.979    -890.848
  H      150.721    -434.066    -894.923
  P      153.988    -434.280    -894.953
  C      156.300    -433.847    -893.824
  O      155.497    -434.709    -894.641
  O      154.137    -432.831    -895.626
  O      153.206    -435.223    -895.807
  H      154.134    -432.895    -896.606
  H      157.276    -434.271    -893.710
  H      155.843    -433.739    -892.862
  H      156.381    -432.887    -894.290

 6  7  8  9  10  11  12  13  14  15  25  28  32  33  34  35 0
 6-311+G(2d,p)
 ****
 36  39  40 0
 6-311+G(2d,p)
 ****
 1  2  3  4  5  16  17  18  19  20  21  22  23  24 0
 3-21G
 ****
 26  27  29  30  31  37  38  41  42  43  44  45  46  47 0
 3-21G
 ****
 48 0
 3-21G
 ****


