%nproc=1
%NoSave
%Mem=1900MB
#P OB98/GEN NMR

erre ene a

0 1
  C     -881.613     649.328    -939.182
  O     -880.861     650.504    -938.993
  P     -879.344     650.438    -938.482
  C     -878.410     650.243    -940.871
  O     -878.417     651.013    -939.677
  C     -877.995     651.143    -942.047
  O     -878.980     652.183    -942.294
  C     -876.690     651.906    -941.820
  O     -875.507     651.150    -941.703
  C     -876.765     652.941    -942.927
  O     -876.331     652.395    -944.171
  C     -878.287     653.251    -942.958
  N     -878.568     654.551    -942.350
  C     -878.838     655.587    -943.234
  O     -878.809     655.494    -944.443
  N     -879.080     656.825    -942.646
  C     -879.034     657.082    -941.303
  O     -879.226     658.214    -940.864
  C     -878.766     655.938    -940.428
  C     -878.549     654.744    -940.968
  O     -878.924     649.099    -937.963
  O     -879.272     651.616    -937.394
  H     -875.433     652.053    -944.041
  H     -879.475     652.508    -937.748
  H     -879.228     657.591    -943.262
  H     -878.758     656.122    -939.363
  H     -878.342     653.875    -940.348
  H     -878.641     653.266    -944.000
  H     -876.111     653.798    -942.715
  H     -876.796     652.442    -940.869
  H     -877.943     650.504    -942.952
  H     -879.407     649.846    -941.051
  H     -877.733     649.400    -940.752
  P     -874.419     651.388    -940.550
  C     -875.247     649.460    -939.030
  O     -874.179     649.992    -939.792
  O     -874.570     652.611    -939.707
  O     -873.055     651.504    -941.417
  H     -872.442     652.138    -940.962
  H     -874.893     648.551    -938.526
  H     -876.099     649.219    -939.658
  H     -875.559     650.156    -938.241
  H     -882.594     649.583    -939.524
  H     -881.685     648.798    -938.255
  H     -881.131     648.710    -939.910

 3  4  5  6  7  8  9  10  11  12  13  23  28  29  30  31  32 0
 6-311+G(2d,p)
 ****
 33  34 0
 6-311+G(2d,p)
 ****
 1  2  14  15  16  17  18  19  20  21  22  24  25  26  27 0
 3-21G
 ****
 35  36  37  38  39  40  41  42  43  44  45 0
 3-21G
 ****


