%nproc=1
%NoSave
%Mem=1900MB
#P OB98/GEN NMR

erre ene a

0 1
  C      -86.023     -70.116      16.488
  O      -85.931     -68.868      17.144
  H      -86.427     -69.957      15.485
  H      -86.697     -70.779      17.034
  H      -85.038     -70.582      16.396
  P      -85.180     -68.791      18.557
  C      -85.691     -69.519      20.977
  O      -86.188     -69.387      19.651
  C      -86.480     -70.591      21.723
  O      -86.199     -71.893      21.168
  C      -86.142     -70.691      23.206
  O      -86.736     -69.632      23.932
  C      -86.688     -72.074      23.527
  O      -88.110     -72.031      23.719
  C      -86.327     -72.854      22.240
  N      -85.111     -73.654      22.374
  C      -84.974     -74.724      21.496
  O      -85.832     -75.027      20.668
  N      -83.819     -75.450      21.614
  C      -82.852     -75.265      22.558
  O      -81.858     -75.979      22.655
  C      -83.065     -74.142      23.481
  C      -84.167     -73.400      23.349
  O      -84.586     -67.467      18.906
  O      -84.057     -69.928      18.447
  H      -88.279     -71.355      24.403
  H      -83.196     -69.521      18.239
  H      -83.708     -76.237      20.994
  H      -82.321     -73.969      24.247
  H      -84.344     -72.571      24.024
  H      -87.148     -73.525      21.961
  H      -86.260     -72.494      24.438
  H      -85.055     -70.701      23.348
  H      -87.550     -70.389      21.581
  H      -85.803     -68.558      21.491
  H      -84.629     -69.779      20.933
  P      -86.166     -69.201      25.363
  C      -86.562     -70.001      27.763
  O      -86.504     -70.384      26.395
  O      -86.566     -67.840      25.825
  O      -84.578     -69.310      25.196
  H      -84.189     -68.416      25.138
  H      -86.792     -70.856      28.363
  H      -87.322     -69.259      27.894
  H      -85.616     -69.600      28.061

 6  7  8  9  10  11  12  13  14  15  16  26  31  32  33  34  35 0
 6-311+G(2d,p)
 ****
 36  37 0
 6-311+G(2d,p)
 ****
 1  2  3  4  5  17  18  19  20  21  22  23  24  25 0
 3-21G
 ****
 27  28  29  30  38  39  40  41  42  43  44  45 0
 3-21G
 ****


