%nproc=1
%NoSave
%Mem=1900MB
#P OB98/GEN NMR

erre ene a

0 1
  C     -177.100    -180.292     123.950
  O     -176.076    -180.253     124.935
  P     -174.687    -179.544     124.546
  C     -173.598    -181.657     123.474
  O     -174.099    -180.342     123.282
  C     -172.312    -181.861     122.674
  O     -171.693    -183.106     123.098
  C     -172.507    -181.951     121.156
  O     -171.332    -181.392     120.546
  C     -172.549    -183.451     120.898
  O     -172.241    -183.784     119.548
  C     -171.529    -183.938     121.927
  N     -170.835    -188.727     120.448
  C     -170.577    -187.543     119.770
  N     -170.002    -187.663     118.555
  N     -170.864    -186.358     120.247
  C     -171.423    -186.399     121.483
  C     -171.759    -187.508     122.232
  C     -171.407    -188.806     121.711
  O     -171.537    -189.875     122.308
  N     -172.391    -187.149     123.394
  C     -172.362    -185.833     123.385
  N     -171.746    -185.329     122.267
  O     -173.724    -179.971     125.750
  O     -174.749    -178.060     124.357
  H     -171.289    -183.595     119.404
  H     -173.712    -179.291     126.450
  H     -170.577    -189.609     120.036
  H     -172.769    -185.188     124.150
  H     -170.498    -183.837     121.575
  H     -173.552    -183.832     121.124
  H     -169.731    -188.538     118.140
  H     -173.402    -181.435     120.794
  H     -169.776    -186.812     118.056
  H     -171.614    -181.048     122.920
  H     -174.345    -182.377     123.123
  H     -173.421    -181.833     124.540
  P     -171.529    -180.423     119.280
  C     -171.206    -182.259     117.479
  O     -172.080    -181.315     118.067
  O     -170.019    -180.101     118.843
  O     -172.277    -179.165     119.565
  H     -169.973    -179.203     118.465
  H     -171.803    -183.032     116.981
  H     -170.564    -182.742     118.224
  H     -170.580    -181.762     116.727
  H     -177.959    -180.790     124.348
  H     -176.747    -180.821     123.090
  H     -177.364    -179.294     123.671

 3  4  5  6  7  8  9  10  11  12  23  26  30  31 0
 6-311+G(2d,p)
 ****
 33  35  36  37  38 0
 6-311+G(2d,p)
 ****
 1  2  13  14  15  16  17  18  19  20  21  22  24  25 0
 3-21G
 ****
 27  28  29  32  34  39  40  41  42  43  44  45  46  47  48  49 0
 3-21G
 ****


