%nproc=1
%NoSave
%Mem=1900MB
#P OB98/GEN NMR

erre ene a

0 1
  C      372.847    -184.227    -311.168
  O      374.072    -184.539    -310.539
  H      372.467    -183.294    -310.749
  H      372.122    -185.022    -310.973
  H      372.976    -184.104    -312.246
  P      375.019    -185.646    -311.198
  C      374.370    -187.609    -309.646
  O      374.318    -187.071    -310.961
  C      374.243    -189.136    -309.669
  O      375.116    -189.680    -310.687
  C      374.700    -189.727    -308.335
  O      374.042    -190.956    -308.038
  C      376.176    -190.000    -308.567
  O      376.712    -190.978    -307.680
  C      376.162    -190.422    -310.036
  N      381.015    -191.863    -310.624
  C      380.083    -192.295    -309.702
  N      380.504    -193.214    -308.808
  N      378.852    -191.853    -309.656
  C      378.590    -190.879    -310.562
  C      379.442    -190.350    -311.507
  C      380.787    -190.879    -311.577
  O      381.663    -190.518    -312.361
  N      378.826    -189.365    -312.242
  C      377.612    -189.293    -311.734
  N      377.416    -190.200    -310.723
  O      376.278    -185.711    -310.207
  O      375.448    -185.379    -312.609
  H      377.662    -191.065    -307.880
  H      377.063    -186.036    -310.675
  H      381.942    -192.248    -310.624
  H      376.842    -188.611    -312.068
  H      375.922    -191.493    -310.128
  H      376.725    -189.070    -308.399
  H      381.478    -193.450    -308.693
  H      374.546    -189.035    -307.504
  H      379.939    -193.319    -307.960
  H      373.222    -189.427    -309.936
  H      373.539    -187.169    -309.085
  H      375.296    -187.305    -309.151
  P      372.652    -190.878    -307.235
  C      372.939    -191.647    -304.741
  O      372.994    -190.600    -305.693
  O      372.124    -192.387    -307.253
  O      371.668    -189.927    -307.829
  H      371.389    -192.477    -307.887
  H      373.198    -191.265    -303.776
  H      373.629    -192.417    -305.017
  H      371.948    -192.050    -304.711

 6  7  8  9  10  11  12  13  14  15  26  29  33  34 0
 6-311+G(2d,p)
 ****
 36  38  39  40  41 0
 6-311+G(2d,p)
 ****
 1  2  3  4  5  16  17  18  19  20  21  22  23  24  25 0
 3-21G
 ****
 27  28  30  31  32  35  37  42  43  44  45  46  47 0
 3-21G
 ****
 48  49 0
 3-21G
 ****


