%nproc=1
%NoSave
%Mem=1900MB
#P OB98/GEN NMR

erre ene a

0 1
  C       67.203     294.762     -84.234
  O       66.693     293.454     -84.057
  H       67.464     295.171     -83.256
  H       66.444     295.403     -84.695
  H       68.100     294.739     -84.859
  P       66.266     292.664     -85.387
  C       63.799     292.433     -84.601
  O       64.695     292.928     -85.586
  C       62.376     292.883     -84.928
  O       62.292     294.326     -84.845
  C       61.928     292.531     -86.340
  O       61.539     291.173     -86.462
  C       60.781     293.510     -86.536
  O       59.565     293.013     -85.961
  C       61.264     294.747     -85.771
  N       60.051     298.909     -88.466
  C       59.336     298.154     -87.605
  N       59.737     297.066     -86.915
  C       61.030     296.796     -87.165
  C       61.883     297.480     -88.015
  C       61.345     298.589     -88.686
  N       62.062     299.347     -89.585
  N       63.127     296.879     -88.042
  C       63.029     295.853     -87.216
  N       61.782     295.768     -86.661
  O       66.341     291.130     -84.934
  O       67.115     292.935     -86.583
  H       58.866     293.647     -86.207
  H       67.179     290.738     -85.249
  H       58.304     298.455     -87.455
  H       63.823     295.153     -86.995
  H       60.462     295.206     -85.181
  H       60.598     293.688     -87.595
  H       62.722     292.769     -87.059
  H       61.692     292.457     -84.183
  H       64.083     292.824     -83.620
  H       63.859     291.339     -84.580
  H       61.596     300.084     -90.080
  H       62.996     299.047     -89.841
  P       61.251     290.611     -87.933
  C       58.751     290.172     -87.329
  O       59.680     290.785     -88.211
  O       61.434     289.029     -87.781
  O       62.132     291.174     -88.995
  H       61.827     288.660     -88.598
  H       57.755     290.385     -87.656
  H       58.892     290.555     -86.340
  H       58.907     289.113     -87.327

 6  7  8  9  10  11  12  13  14  15  25  28  32  33  34  35 0
 6-311+G(2d,p)
 ****
 36  37  40 0
 6-311+G(2d,p)
 ****
 1  2  3  4  5  16  17  18  19  20  21  22  23  24 0
 3-21G
 ****
 26  27  29  30  31  38  39 41  42  43  44  45  46  47  48 0
 3-21G
 ****


