%nproc=1
%NoSave
%Mem=1900MB
#P OB98/GEN NMR

erre ene a

0 1
  C      584.028    -414.802     602.108
  O      583.393    -414.593     600.840
  P      581.825    -414.937     600.756
  C      581.790    -417.469     600.169
  O      581.629    -416.480     601.164
  C      581.430    -418.867     600.677
  O      580.021    -418.912     601.094
  C      581.615    -419.976     599.629
  O      582.015    -421.158     600.328
  C      580.223    -420.176     599.077
  O      580.091    -421.463     598.448
  C      579.386    -419.972     600.350
  N      577.963    -419.654     600.063
  C      577.028    -420.094     601.002
  O      577.374    -420.770     601.982
  N      575.706    -419.780     600.792
  C      575.354    -419.147     599.715
  N      574.031    -418.878     599.564
  C      576.314    -418.730     598.673
  C      577.595    -419.008     598.917
  O      581.539    -414.930     599.173
  O      580.954    -413.969     601.475
  H      580.250    -422.158     599.132
  H      580.749    -414.387     598.991
  H      575.970    -418.218     597.778
  H      578.378    -418.745     598.210
  H      579.400    -420.879     600.978
  H      580.004    -419.402     598.330
  H      582.368    -419.735     598.883
  H      582.030    -419.079     601.566
  H      573.403    -419.187     600.304
  H      582.839    -417.488     599.832
  H      573.646    -418.404     598.778
  H      581.200    -417.197     599.290
  P      583.524    -421.691     600.158
  C      583.388    -423.498     598.330
  O      583.624    -422.126     598.621
  O      583.449    -423.116     600.893
  O      584.633    -420.861     600.697
  H      584.328    -423.522     600.917
  H      583.371    -423.633     597.247
  H      582.448    -423.824     598.744
  H      584.213    -424.120     598.740
  H      585.063    -414.539     602.036
  H      583.940    -415.832     602.386
  H      583.555    -414.191     602.849

 3  4  5  6  7  8  9  10  11  12  13  21  23  27  28  29  30  32 0
 6-311+G(2d,p)
 ****
 34  35 0
 6-311+G(2d,p)
 ****
 1  2  14  15  16  17  18  19  20  22  24  25  26 0
 3-21G
 ****
 31  33  36  37  38  39  40  41  42  43  44  45  46 0
 3-21G
 ****


