%nproc=1
%NoSave
%Mem=1900MB
#P OB98/GEN NMR

erre ene a

0 1
  C       60.106     450.768      81.795
  O       61.197     451.642      81.999
  H       59.356     451.281      81.188
  H       59.656     450.493      82.752
  H       60.436     449.870      81.267
  P       62.392     451.104      82.924
  C       61.862     452.950      84.674
  O       62.844     452.332      83.852
  C       62.491     454.108      85.444
  O       63.513     453.609      86.333
  C       63.190     455.132      84.559
  O       62.277     456.019      83.939
  C       64.085     455.823      85.575
  O       63.379     456.850      86.286
  C       64.478     454.664      86.517
  N       65.847     454.205      86.283
  C       66.705     454.302      87.371
  O       66.363     454.744      88.467
  N       67.999     453.909      87.147
  C       68.511     453.476      85.959
  O       69.694     453.206      85.804
  C       67.547     453.379      84.847
  C       66.284     453.754      85.052
  O       63.604     450.944      81.889
  O       62.104     449.838      83.657
  H       63.723     450.004      81.660
  H       63.135     457.524      85.622
  H       68.640     453.981      87.925
  H       67.918     453.033      83.891
  H       65.558     453.712      84.246
  H       64.403     454.981      87.563
  H       64.941     456.303      85.095
  H       63.818     454.626      83.819
  H       61.710     454.589      86.048
  H       61.469     452.217      85.386
  H       61.042     453.303      84.042
  P       62.826     457.027      82.821
  C       62.800     459.145      84.376
  O       62.300     458.488      83.223
  O       61.921     456.620      81.566
  O       64.297     456.930      82.593
  H       61.013     456.372      81.815
  H       62.330     460.101      84.473
  H       63.858     459.275      84.282
  H       62.589     458.554      85.243

 6  7  8  9  10  11  12  13  14  15  16  27  31  32  33  34  35 0
 6-311+G(2d,p)
 ****
 36  37 0
 6-311+G(2d,p)
 ****
 1  2  3  4  5  17  18  19  20  21  22  23  24  25 0
 3-21G
 ****
 26  28  29  30  38  39  40  41  42  43  44  45 0
 3-21G
 ****


