%nproc=1
%NoSave
%Mem=1900MB
#P OB98/GEN NMR

erre ene a

0 1
  C       70.099    -183.006     -65.581
  O       69.137    -182.855     -64.556
  H       70.406    -184.056     -65.626
  H       70.978    -182.391     -65.365
  H       69.673    -182.719     -66.545
  P       68.607    -181.364     -64.291
  C       69.872    -181.393     -62.030
  O       68.643    -181.148     -62.702
  C       69.652    -181.438     -60.518
  O       70.848    -181.886     -59.843
  C       69.271    -180.097     -59.895
  O       67.881    -179.855     -60.020
  C       69.706    -180.310     -58.454
  O       68.721    -181.075     -57.723
  C       71.000    -181.114     -58.621
  N       73.856    -177.734     -56.183
  C       72.639    -178.283     -55.841
  N       72.076    -177.844     -54.692
  N       72.011    -179.174     -56.566
  C       72.659    -179.474     -57.717
  C       73.870    -179.000     -58.167
  C       74.579    -178.057     -57.328
  O       75.698    -177.600     -57.534
  N       74.203    -179.556     -59.375
  C       73.181    -180.341     -59.667
  N       72.215    -180.318     -58.695
  O       67.036    -181.463     -64.611
  O       69.254    -180.298     -65.108
  H       69.107    -181.363     -56.876
  H       66.755    -180.640     -65.051
  H       74.308    -177.076     -55.570
  H       73.099    -180.949     -60.559
  H       71.150    -181.830     -57.804
  H       69.813    -179.362     -57.922
  H       72.354    -176.976     -54.254
  H       69.859    -179.279     -60.334
  H       71.148    -178.191     -54.481
  H       68.873    -182.187     -60.322
  H       70.575    -180.587     -62.270
  H       70.286    -182.345     -62.371
  P       67.384    -178.337     -60.140
  C       67.058    -178.089     -57.577
  O       66.462    -178.017     -58.866
  O       66.337    -178.399     -61.353
  O       68.464    -177.348     -60.416
  H       66.733    -178.005     -62.153
  H       66.327    -177.852     -56.832
  H       67.866    -177.390     -57.518
  H       67.429    -179.079     -57.410

 6  7  8  9  10  11  12  13  14  15  26  29  33  34 0
 6-311+G(2d,p)
 ****
 36  38  39  40  41 0
 6-311+G(2d,p)
 ****
 1  2  3  4  5  16  17  18  19  20  21  22  23  24  25 0
 3-21G
 ****
 27  28  30  31  32  35  37  42  43  44  45  46  47 0
 3-21G
 ****
 48  49 0
 3-21G
 ****


