%nproc=1
%NoSave
%Mem=1900MB
#P OB98/GEN NMR

erre ene a

0 1
  C     -246.353    -109.842     420.908
  O     -247.607    -109.749     421.551
  H     -245.743    -108.987     421.200
  H     -246.490    -109.826     419.823
  H     -245.838    -110.762     421.204
  P     -248.625    -110.973     421.354
  C     -250.457    -110.048     419.745
  O     -249.258    -110.797     419.887
  C     -251.038    -110.259     418.344
  O     -251.583    -111.605     418.260
  C     -252.174    -109.284     418.005
  O     -252.090    -108.933     416.619
  C     -253.424    -110.109     418.254
  O     -254.567    -109.646     417.541
  C     -252.951    -111.498     417.819
  N     -253.767    -112.573     418.383
  C     -254.686    -113.190     417.542
  O     -254.815    -112.946     416.343
  N     -255.494    -114.128     418.141
  C     -255.487    -114.480     419.457
  O     -256.246    -115.310     419.933
  C     -254.494    -113.789     420.299
  C     -253.697    -112.879     419.731
  O     -249.845    -110.600     422.323
  O     -248.070    -112.328     421.628
  H     -249.702    -110.976     423.211
  H     -254.399    -109.773     416.582
  H     -256.172    -114.587     417.542
  H     -254.459    -114.039     421.350
  H     -252.961    -112.344     420.325
  H     -252.947    -111.570     416.724
  H     -253.670    -110.101     419.323
  H     -252.152    -108.376     418.612
  H     -250.226    -110.192     417.606
  H     -250.239    -108.989     419.887
  H     -251.175    -110.371     420.505
  P     -252.162    -107.371     416.246
  C     -254.770    -107.138     416.233
  O     -253.541    -106.832     416.873
  O     -252.436    -107.431     414.674
  O     -250.936    -106.622     416.654
  H     -253.018    -108.164     414.405
  H     -255.577    -106.702     416.784
  H     -254.897    -108.200     416.194
  H     -254.762    -106.743     415.239

 6  7  8  9  10  11  12  13  14  15  16  27  31  32  33  34  35 0
 6-311+G(2d,p)
 ****
 36  37 0
 6-311+G(2d,p)
 ****
 1  2  3  4  5  17  18  19  20  21  22  23  24  25 0
 3-21G
 ****
 26  28  29  30  38  39  40  41  42  43  44  45 0
 3-21G
 ****


