%nproc=1
%NoSave
%Mem=1900MB
#P OB98/GEN NMR

erre ene a

0 1
  C      317.616     392.928    -233.295
  O      317.161     393.030    -234.649
  P      316.533     391.693    -235.284
  C      314.921     392.937    -236.890
  O      316.023     392.045    -236.771
  C      314.640     393.283    -238.361
  O      315.660     394.168    -238.897
  C      314.587     392.054    -239.284
  O      313.602     392.335    -240.291
  C      315.964     392.054    -239.925
  O      315.992     391.274    -241.119
  C      316.164     393.551    -240.110
  N      319.765     393.914    -243.639
  C      318.496     393.390    -243.716
  N      318.100     392.940    -244.931
  N      317.670     393.313    -242.708
  C      318.187     393.836    -241.555
  C      319.429     394.408    -241.350
  C      320.332     394.451    -242.488
  O      321.471     394.913    -242.469
  N      319.563     394.855    -240.063
  C      318.432     394.495    -239.478
  N      317.537     393.934    -240.347
  O      315.181     391.497    -234.450
  O      317.422     390.502    -235.191
  H      315.214     391.543    -241.651
  H      315.306     390.823    -233.758
  H      320.359     393.932    -244.449
  H      318.197     394.650    -238.433
  H      315.583     393.950    -240.963
  H      316.708     391.643    -239.220
  H      318.663     393.008    -245.764
  H      314.354     391.113    -238.773
  H      317.152     392.585    -245.021
  H      313.684     393.825    -238.406
  H      315.126     393.863    -236.348
  H      314.041     392.492    -236.413
  P      312.447     391.254    -240.518
  C      310.749     393.149    -241.055
  O      311.343     391.929    -241.469
  O      311.714     391.196    -239.087
  O      312.916     389.897    -240.931
  H      311.458     390.276    -238.884
  H      310.425     393.689    -241.937
  H      311.451     393.766    -240.494
  H      309.880     392.929    -240.423
  H      318.011     393.871    -232.980
  H      318.380     392.181    -233.231
  H      316.797     392.655    -232.663

 3  4  5  6  7  8  9  10  11  12  23  26  30  31 0
 6-311+G(2d,p)
 ****
 33  35  36  37  38 0
 6-311+G(2d,p)
 ****
 1  2  13  14  15  16  17  18  19  20  21  22  24  25 0
 3-21G
 ****
 27  28  29  32  34  39  40  41  42  43  44  45  46  47  48  49 0
 3-21G
 ****


