%nproc=1
%NoSave
%Mem=1900MB
#P OB98/GEN NMR

erre ene a

0 1
  C      656.803     252.344    -169.441
  O      656.402     251.395    -168.472
  H      655.917     252.677    -169.991
  H      657.502     251.886    -170.152
  H      657.253     253.206    -168.955
  P      657.565     250.743    -167.580
  C      657.884     248.936    -169.411
  O      658.492     249.963    -168.631
  C      658.835     248.448    -170.496
  O      659.063     249.493    -171.471
  C      660.215     248.043    -169.991
  O      660.196     246.708    -169.500
  C      661.037     248.149    -171.264
  O      660.856     246.957    -172.063
  C      660.417     249.364    -171.975
  N      663.588     252.806    -174.062
  C      663.241     251.576    -174.455
  N      662.426     250.686    -173.825
  C      661.962     251.216    -172.669
  C      662.233     252.466    -172.141
  C      663.089     253.294    -172.899
  N      663.447     254.566    -172.492
  N      661.578     252.650    -170.954
  C      660.876     251.538    -170.785
  N      661.099     250.627    -171.784
  O      657.110     249.961    -166.395
  O      658.446     252.042    -167.237
  H      661.510     247.006    -172.786
  H      658.517     252.616    -168.021
  H      663.659     251.238    -175.396
  H      660.169     251.375    -169.983
  H      660.340     249.209    -173.063
  H      662.115     248.240    -171.067
  H      660.603     248.755    -169.247
  H      658.346     247.609    -171.026
  H      656.962     249.306    -169.868
  H      664.213     255.005    -172.987
  H      663.177     254.855    -171.563
  H      657.627     248.117    -168.737
  P      661.334     246.174    -168.497
  C      662.865     245.728    -170.518
  O      662.714     246.404    -169.283
  O      661.107     244.797    -167.988
  O      661.382     247.276    -167.332
  H      661.841     246.914    -166.559
  H      663.820     245.963    -170.939
  H      662.093     246.038    -171.191
  H      662.795     244.672    -170.358

 6  7  8  9  10  11  12  13  14  15  25  28  32  33  34  35 0
 6-311+G(2d,p)
 ****
 36  39  40 0
 6-311+G(2d,p)
 ****
 1  2  3  4  5  16  17  18  19  20  21  22  23  24 0
 3-21G
 ****
 26  27  29  30  31  37  38  41  42  43  44  45  46  47 0
 3-21G
 ****
 48 0
 3-21G
 ****


