%nproc=1
%NoSave
%Mem=1900MB
#P OB98/GEN NMR

erre ene a

0 1
  C      151.065    -638.061    -417.579
  O      151.953    -638.595    -416.616
  H      150.146    -638.653    -417.581
  H      151.516    -638.111    -418.578
  H      150.813    -637.024    -417.332
  P      153.384    -637.904    -416.423
  C      154.768    -639.754    -417.591
  O      154.255    -638.436    -417.670
  C      156.281    -639.742    -417.852
  O      156.595    -639.082    -419.095
  C      157.110    -639.006    -416.804
  O      157.235    -639.703    -415.581
  C      158.431    -638.897    -417.551
  O      159.104    -640.158    -417.525
  C      157.936    -638.539    -418.964
  N      157.928    -637.091    -419.216
  C      159.087    -636.386    -418.888
  O      160.063    -636.973    -418.399
  N      159.122    -635.021    -419.086
  C      158.074    -634.423    -419.549
  N      158.161    -633.064    -419.718
  C      156.816    -635.117    -419.889
  C      156.804    -636.439    -419.712
  O      154.021    -638.074    -415.079
  O      153.153    -636.366    -416.822
  H      159.114    -640.460    -416.605
  H      154.003    -635.891    -416.708
  H      155.960    -634.556    -420.240
  H      155.928    -637.015    -419.934
  H      158.557    -639.024    -419.732
  H      159.106    -638.159    -417.105
  H      156.714    -637.994    -416.644
  H      156.608    -640.797    -417.954
  H      159.028    -632.618    -419.472
  H      154.248    -640.374    -418.331
  H      157.358    -632.500    -419.996
  H      154.596    -640.170    -416.592
  P      157.282    -638.804    -414.234
  C      159.870    -638.872    -413.860
  O      158.726    -638.099    -414.216
  O      157.358    -639.905    -413.068
  O      156.126    -637.856    -414.059
  H      156.474    -640.052    -412.679
  H      160.743    -638.255    -413.898
  H      159.978    -639.686    -414.546
  H      159.747    -639.255    -412.869

 6  7  8  9  10  11  12  13  14  15  16  26  30  31  32  33  35 0
 6-311+G(2d,p)
 ****
 37  38 0
 6-311+G(2d,p)
 ****
 1  2  3  4  5  17  18  19  20  21  22  23  24  25 0
 3-21G
 ****
 27  28  29  34  36  39  40  41  42  43  44  45  46 0
 3-21G
 ****


