%nproc=1
%NoSave
%Mem=1900MB
#P OB98/GEN NMR

erre ene a

0 1
  C     -208.221     -74.916      58.095
  O     -207.139     -75.593      57.486
  H     -209.133     -75.136      57.533
  H     -208.057     -73.835      58.086
  H     -208.352     -75.264      59.123
  P     -205.653     -75.312      58.017
  C     -205.838     -76.761      60.140
  O     -205.222     -76.605      58.868
  C     -206.137     -78.237      60.421
  O     -207.435     -78.561      59.855
  C     -205.101     -79.197      59.823
  O     -204.914     -80.283      60.737
  C     -205.786     -79.677      58.560
  O     -205.278     -80.927      58.133
  C     -207.262     -79.682      58.967
  N     -208.136     -79.593      57.795
  C     -209.148     -80.555      57.697
  O     -209.282     -81.409      58.578
  N     -209.944     -80.569      56.579
  C     -209.714     -79.737      55.613
  N     -210.514     -79.832      54.517
  C     -208.639     -78.722      55.659
  C     -207.897     -78.706      56.771
  O     -205.438     -74.008      58.711
  O     -204.751     -75.432      56.697
  H     -204.408     -80.792      57.697
  H     -204.665     -74.556      56.272
  H     -208.484     -78.053      54.825
  H     -207.079     -78.001      56.889
  H     -207.511     -80.596      59.523
  H     -205.617     -78.952      57.752
  H     -204.142     -78.716      59.614
  H     -206.221     -78.376      61.509
  H     -211.220     -80.559      54.520
  H     -206.774     -76.193      60.134
  H     -210.404     -79.265      53.687
  H     -205.187     -76.356      60.922
  P     -203.631     -80.328      61.703
  C     -203.894     -78.869      63.793
  O     -204.120     -80.159      63.227
  O     -202.516     -79.419      61.302
  O     -203.158     -81.861      61.641
  H     -202.191     -81.907      61.772
  H     -204.250     -78.855      64.802
  H     -204.416     -78.132      63.220
  H     -202.846     -78.653      63.782

 6  7  8  9  10  11  12  13  14  15  16  26  30  31  32  33  35 0
 6-311+G(2d,p)
 ****
 37  38 0
 6-311+G(2d,p)
 ****
 1  2  3  4  5  17  18  19  20  21  22  23  24  25 0
 3-21G
 ****
 27  28  29  34  36  39  40  41  42  43  44  45  46 0
 3-21G
 ****


