%nproc=1
%NoSave
%Mem=1900MB
#P OB98/GEN NMR

erre ene a

0 1
  C      171.306     -57.491      75.866
  O      170.188     -57.574      75.003
  H      171.463     -56.445      76.139
  H      172.201     -57.863      75.359
  H      171.126     -58.070      76.775
  P      169.784     -59.041      74.499
  C      170.093     -58.796      71.921
  O      169.194     -58.854      73.019
  C      169.562     -57.842      70.845
  O      169.814     -56.470      71.270
  C      170.238     -58.013      69.473
  O      169.289     -57.628      68.463
  C      171.350     -56.980      69.547
  O      171.898     -56.734      68.273
  C      170.593     -55.842      70.227
  N      173.500     -51.767      69.181
  C      172.707     -52.530      68.398
  N      171.953     -53.592      68.750
  C      172.055     -53.831      70.069
  C      172.815     -53.137      70.994
  C      173.571     -52.056      70.502
  N      174.386     -51.283      71.295
  N      172.668     -53.681      72.257
  C      171.830     -54.687      72.094
  N      171.442     -54.820      70.790
  O      168.495     -59.391      75.382
  O      170.847     -60.080      74.625
  H      172.479     -55.944      68.291
  H      168.760     -59.911      76.163
  H      172.675     -52.253      67.346
  H      171.485     -55.351      72.877
  H      169.893     -55.352      69.539
  H      172.170     -57.336      70.179
  H      170.580     -59.033      69.283
  H      168.474     -57.956      70.771
  H      170.199     -59.804      71.506
  H      171.070     -58.446      72.268
  H      174.906     -50.536      70.861
  H      174.461     -51.497      72.279
  P      168.746     -58.739      67.435
  C      168.309     -57.574      65.133
  O      167.781     -58.027      66.372
  O      167.700     -59.550      68.342
  O      169.779     -59.660      66.872
  H      167.633     -60.469      68.022
  H      167.528     -57.128      64.554
  H      168.721     -58.403      64.597
  H      169.076     -56.850      65.315

 6  7  8  9  10  11  12  13  14  15  25  28  32  33  34  35 0
 6-311+G(2d,p)
 ****
 36  37  40 0
 6-311+G(2d,p)
 ****
 1  2  3  4  5  16  17  18  19  20  21  22  23  24 0
 3-21G
 ****
 26  27  29  30  31  38  39 41  42  43  44  45  46  47  48 0
 3-21G
 ****


