%nproc=1
%NoSave
%Mem=1900MB
#P OB98/GEN NMR

erre ene a

0 1
  C      317.838    -613.344     204.795
  O      317.780    -613.150     206.192
  H      318.398    -612.519     204.346
  H      316.826    -613.349     204.377
  H      318.341    -614.284     204.557
  P      317.072    -614.304     207.056
  C      314.904    -613.067     207.760
  O      315.491    -614.061     206.930
  C      313.451    -612.817     207.361
  O      313.427    -612.191     206.039
  C      312.587    -614.089     207.284
  O      311.263    -613.756     207.711
  C      312.549    -614.377     205.792
  O      311.435    -615.193     205.420
  C      312.497    -612.953     205.240
  N      310.662    -613.612     200.598
  C      310.036    -613.689     201.835
  N      308.722    -613.992     201.831
  N      310.651    -613.490     202.964
  C      311.963    -613.166     202.817
  C      312.696    -613.057     201.661
  C      312.010    -613.308     200.412
  O      312.513    -613.269     199.291
  N      314.002    -612.735     201.932
  C      314.059    -612.649     203.252
  N      312.843    -612.899     203.831
  O      317.402    -613.864     208.561
  O      317.532    -615.695     206.768
  H      311.695    -616.131     205.533
  H      318.213    -614.308     208.874
  H      310.146    -613.784     199.758
  H      314.941    -612.409     203.823
  H      311.505    -612.499     205.344
  H      313.467    -614.890     205.479
  H      308.172    -614.109     200.992
  H      312.968    -614.927     207.876
  H      308.239    -614.011     202.721
  H      313.020    -612.093     208.058
  H      315.474    -612.132     207.652
  H      314.952    -613.396     208.804
  P      310.746    -614.355     209.103
  C      309.034    -615.838     207.827
  O      310.055    -615.770     208.807
  O      309.495    -613.420     209.452
  O      311.768    -614.341     210.193
  H      309.368    -613.375     210.414
  H      308.680    -616.845     207.750
  H      309.426    -615.525     206.882
  H      308.226    -615.196     208.109

 6  7  8  9  10  11  12  13  14  15  26  29  33  34 0
 6-311+G(2d,p)
 ****
 36  38  39  40  41 0
 6-311+G(2d,p)
 ****
 1  2  3  4  5  16  17  18  19  20  21  22  23  24  25 0
 3-21G
 ****
 27  28  30  31  32  35  37  42  43  44  45  46  47 0
 3-21G
 ****
 48  49 0
 3-21G
 ****


