%nproc=1
%NoSave
%Mem=1900MB
#P OB98/GEN NMR

erre ene a

0 1
  C     -680.029    -340.384    1320.304
  O     -681.200    -339.628    1320.525
  H     -680.280    -341.442    1320.390
  H     -679.273    -340.138    1321.051
  H     -679.638    -340.198    1319.296
  P     -681.105    -338.023    1320.517
  C     -682.329    -337.972    1322.791
  O     -682.288    -337.489    1321.455
  C     -683.719    -337.776    1323.390
  O     -684.204    -336.467    1322.967
  C     -684.732    -338.836    1322.900
  O     -685.407    -339.485    1323.973
  C     -685.568    -338.074    1321.884
  O     -686.871    -338.582    1321.705
  C     -685.499    -336.632    1322.381
  N     -685.726    -335.629    1321.335
  C     -686.979    -335.027    1321.280
  O     -687.912    -335.253    1322.045
  N     -687.148    -334.104    1320.269
  C     -686.222    -333.759    1319.338
  O     -686.429    -332.928    1318.463
  C     -684.917    -334.442    1319.433
  C     -684.743    -335.346    1320.405
  O     -681.033    -337.400    1319.167
  O     -679.786    -337.710    1321.375
  H     -687.360    -337.928    1321.149
  H     -679.063    -337.452    1320.780
  H     -688.050    -333.653    1320.227
  H     -684.163    -334.200    1318.692
  H     -683.797    -335.872    1320.514
  H     -686.259    -336.457    1323.153
  H     -685.066    -338.135    1320.900
  H     -684.205    -339.652    1322.400
  H     -683.646    -337.756    1324.482
  H     -681.579    -337.423    1323.373
  H     -682.067    -339.044    1322.798
  P     -685.193    -341.007    1324.409
  C     -687.374    -342.008    1323.311
  O     -686.617    -341.713    1324.490
  O     -684.258    -341.235    1325.536
  O     -684.544    -341.690    1323.087
  H     -683.945    -342.397    1323.413
  H     -688.294    -342.479    1323.587
  H     -686.812    -342.665    1322.681
  H     -687.582    -341.100    1322.784

 6  7  8  9  10  11  12  13  14  15  16  26  31  32  33  34  35 0
 6-311+G(2d,p)
 ****
 36  37 0
 6-311+G(2d,p)
 ****
 1  2  3  4  5  17  18  19  20  21  22  23  24  25 0
 3-21G
 ****
 27  28  29  30  38  39  40  41  42  43  44  45 0
 3-21G
 ****


