%nproc=1
%NoSave
%Mem=1900MB
#P OB98/GEN NMR

erre ene a

0 1
  C       38.304     -23.400       9.473
  O       38.019     -21.999       9.575
  P       36.998     -21.384      10.652
  C       34.919     -21.998       9.254
  O       35.574     -22.112      10.510
  C       33.462     -21.545       9.410
  O       32.797     -22.339      10.439
  C       33.295     -20.063       9.796
  O       32.155     -19.580       9.077
  C       33.015     -20.157      11.288
  O       32.416     -18.994      11.829
  C       32.125     -21.404      11.308
  N       31.899     -21.992      12.624
  C       30.777     -21.563      13.346
  O       30.036     -20.680      12.916
  N       30.524     -22.139      14.568
  C       31.317     -23.052      15.036
  N       31.003     -23.586      16.246
  C       32.518     -23.518      14.320
  C       32.743     -22.954      13.135
  O       36.908     -19.893      10.606
  O       37.537     -21.871      12.078
  H       37.383     -21.167      12.737
  H       31.450     -19.126      11.831
  H       33.149     -24.286      14.742
  H       33.591     -23.264      12.532
  H       31.161     -21.170      10.842
  H       33.960     -20.321      11.813
  H       34.160     -19.444       9.544
  H       32.941     -21.754       8.468
  H       30.164     -23.247      16.703
  H       34.933     -22.976       8.766
  H       31.546     -24.307      16.699
  H       35.473     -21.292       8.625
  P       32.367     -18.649       7.788
  C       31.606     -16.568       9.157
  O       32.572     -17.145       8.303
  O       30.883     -18.587       7.178
  O       33.326     -19.153       6.757
  H       30.938     -18.408       6.222
  H       32.122     -16.044       9.966
  H       30.938     -17.315       9.595
  H       31.013     -15.847       8.589
  H       39.010     -23.564       8.686
  H       37.401     -23.933       9.259
  H       38.713     -23.749      10.398

 3  4  5  6  7  8  9  10  11  12  13  24  27  28  29  30  32 0
 6-311+G(2d,p)
 ****
 34  35 0
 6-311+G(2d,p)
 ****
 1  2  14  15  16  17  18  19  20  21  22  23  25  26 0
 3-21G
 ****
 31  33  36  37  38  39  40  41  42  43  44  45  46 0
 3-21G
 ****


