%nproc=1
%NoSave
%Mem=1900MB
#P OB98/GEN NMR

erre ene a

0 1
  C      510.564    -123.803     334.007
  O      511.468    -123.047     334.785
  H      510.928    -124.832     333.946
  H      510.495    -123.392     332.998
  H      509.577    -123.804     334.477
  P      511.168    -121.472     334.903
  C      512.452    -120.643     332.788
  O      511.200    -120.968     333.376
  C      512.304    -119.419     331.890
  O      511.375    -119.684     330.815
  C      511.760    -118.179     332.595
  O      512.726    -117.509     333.383
  C      511.342    -117.356     331.390
  O      512.511    -116.804     330.755
  C      510.688    -118.442     330.507
  N      509.247    -118.578     330.743
  C      508.449    -117.482     330.396
  O      508.948    -116.464     329.923
  N      507.097    -117.550     330.627
  C      506.581    -118.624     331.139
  N      505.235    -118.634     331.349
  C      507.382    -119.806     331.507
  C      508.689    -119.716     331.284
  O      512.530    -120.878     335.496
  O      509.942    -121.093     335.662
  H      512.277    -116.657     329.820
  H      512.507    -119.889     335.472
  H      506.909    -120.675     331.943
  H      509.343    -120.546     331.530
  H      510.848    -118.234     329.443
  H      510.691    -116.519     331.640
  H      510.868    -118.413     333.188
  H      513.282    -119.220     331.435
  H      504.722    -117.786     331.142
  H      512.789    -121.504     332.199
  H      504.767    -119.357     331.876
  H      513.191    -120.433     333.568
  P      512.381    -117.278     334.934
  C      511.484    -114.844     335.176
  O      511.178    -116.223     334.991
  O      513.634    -116.438     335.465
  O      512.171    -118.531     335.725
  H      513.842    -116.669     336.391
  H      510.577    -114.276     335.191
  H      512.103    -114.505     334.372
  H      512.001    -114.715     336.104

 6  7  8  9  10  11  12  13  14  15  16  26  30  31  32  33  35 0
 6-311+G(2d,p)
 ****
 37  38 0
 6-311+G(2d,p)
 ****
 1  2  3  4  5  17  18  19  20  21  22  23  24  25 0
 3-21G
 ****
 27  28  29  34  36  39  40  41  42  43  44  45  46 0
 3-21G
 ****


