%nproc=1
%NoSave
%Mem=1900MB
#P OB98/GEN NMR

erre ene a

0 1
  C     -407.005     -63.644     134.822
  O     -405.854     -62.860     135.095
  P     -404.549     -63.630     135.632
  C     -405.150     -63.389     138.153
  O     -404.965     -64.265     137.042
  C     -404.723     -64.078     139.447
  O     -405.742     -64.998     139.875
  C     -403.456     -64.902     139.323
  O     -402.315     -64.064     139.323
  C     -403.559     -65.807     140.543
  O     -403.012     -65.168     141.707
  C     -405.087     -66.003     140.685
  N     -405.520     -67.345     140.324
  C     -405.611     -68.261     141.372
  O     -405.320     -67.916     142.524
  N     -405.992     -69.550     141.090
  C     -406.248     -69.892     139.868
  N     -406.630     -71.182     139.643
  C     -406.142     -68.961     138.727
  C     -405.765     -67.713     139.021
  O     -403.564     -62.435     136.036
  O     -403.928     -64.571     134.652
  H     -402.047     -65.114     141.552
  H     -402.631     -62.722     135.982
  H     -406.369     -69.298     137.723
  H     -405.664     -66.967     138.243
  H     -405.398     -65.814     141.723
  H     -403.009     -66.742     140.404
  H     -403.474     -65.508     138.408
  H     -404.608     -63.304     140.225
  H     -406.687     -71.801     140.445
  H     -406.211     -63.122     138.223
  H     -406.875     -71.537     138.727
  H     -404.573     -62.476     137.986
  P     -401.130     -64.413     138.298
  C     -400.382     -66.265     139.914
  O     -400.779     -65.951     138.591
  O     -399.879     -63.651     138.961
  O     -401.328     -64.038     136.872
  H     -399.108     -63.708     138.365
  H     -400.322     -67.347     140.010
  H     -401.112     -65.881     140.633
  H     -399.395     -65.838     140.117
  H     -407.794     -63.010     134.474
  H     -407.316     -64.144     135.715
  H     -406.773     -64.369     134.070

 3  4  5  6  7  8  9  10  11  12  13  21  23  27  28  29  30  32 0
 6-311+G(2d,p)
 ****
 34  35 0
 6-311+G(2d,p)
 ****
 1  2  14  15  16  17  18  19  20  22  24  25  26 0
 3-21G
 ****
 31  33  36  37  38  39  40  41  42  43  44  45  46 0
 3-21G
 ****


