%nproc=1
%NoSave
%Mem=1900MB
#P OB98/GEN NMR

erre ene a

0 1
  C      300.858    -404.239      23.005
  O      299.560    -403.713      23.222
  H      301.559    -403.723      23.662
  H      301.174    -404.093      21.970
  H      300.875    -405.308      23.251
  P      298.398    -404.127      22.198
  C      298.058    -403.957      19.640
  O      298.882    -403.610      20.753
  C      297.386    -402.711      19.059
  O      298.374    -401.833      18.482
  C      296.418    -403.014      17.920
  O      295.237    -403.687      18.325
  C      296.308    -401.669      17.212
  O      295.326    -400.806      17.785
  C      297.722    -401.070      17.446
  N      298.513    -401.058      16.217
  C      298.623    -399.813      15.577
  O      298.059    -398.788      15.999
  N      299.349    -399.795      14.428
  C      299.928    -400.876      13.822
  O      300.530    -400.799      12.768
  C      299.764    -402.164      14.534
  C      299.081    -402.187      15.676
  O      297.011    -403.676      22.566
  O      298.547    -405.722      22.080
  H      294.465    -401.248      17.685
  H      297.727    -406.133      21.693
  H      299.440    -398.907      13.957
  H      300.213    -403.046      14.078
  H      298.939    -403.127      16.211
  H      297.648    -400.040      17.806
  H      296.056    -401.794      16.152
  H      296.918    -403.688      17.217
  H      296.885    -402.176      19.869
  H      297.280    -404.650      19.997
  H      298.668    -404.452      18.874
  P      294.174    -404.284      17.307
  C      292.505    -403.315      15.551
  O      293.670    -403.094      16.336
  O      293.162    -405.232      17.855
  O      295.127    -405.126      16.300
  H      294.629    -405.928      16.010
  H      292.299    -402.444      14.965
  H      291.674    -403.517      16.195
  H      292.665    -404.151      14.903

 6  7  8  9  10  11  12  13  14  15  16  26  31  32  33  34  35 0
 6-311+G(2d,p)
 ****
 36  37 0
 6-311+G(2d,p)
 ****
 1  2  3  4  5  17  18  19  20  21  22  23  24  25 0
 3-21G
 ****
 27  28  29  30  38  39  40  41  42  43  44  45 0
 3-21G
 ****


