%nproc=1
%NoSave
%Mem=1900MB
#P OB98/GEN NMR

erre ene a

0 1
  C      131.568     106.093    -203.341
  O      130.994     107.377    -203.157
  P      131.069     108.415    -204.381
  C      129.088     110.004    -203.798
  O      130.493     109.810    -203.836
  C      128.750     111.354    -203.162
  O      129.110     111.305    -201.756
  C      129.480     112.554    -203.775
  O      128.596     113.677    -203.671
  C      130.662     112.748    -202.844
  O      131.207     114.062    -202.914
  C      130.028     112.390    -201.504
  N      132.317     113.596    -197.159
  C      131.412     114.321    -197.913
  N      131.022     115.507    -197.403
  N      130.934     113.918    -199.062
  C      131.404     112.704    -199.436
  C      132.327     111.911    -198.796
  C      132.818     112.350    -197.512
  O      133.553     111.702    -196.769
  N      132.621     110.792    -199.529
  C      131.816     110.868    -200.569
  N      131.026     111.986    -200.533
  O      129.925     107.890    -205.364
  O      132.400     108.527    -205.055
  H      131.522     114.207    -203.830
  H      130.291     107.288    -206.041
  H      132.636     113.950    -196.273
  H      131.757     110.149    -201.370
  H      129.462     113.225    -201.071
  H      131.458     112.040    -203.106
  H      131.326     115.866    -196.511
  H      129.779     112.400    -204.815
  H      130.335     116.044    -197.919
  H      127.664     111.497    -203.215
  H      128.638     109.211    -203.191
  H      128.681     109.938    -204.811
  P      128.561     114.719    -204.889
  C      126.005     115.099    -205.062
  O      127.263     115.635    -204.705
  O      128.179     113.789    -206.139
  O      129.845     115.439    -205.136
  H      128.598     114.141    -206.946
  H      125.225     115.644    -204.527
  H      125.931     114.038    -204.804
  H      125.850     115.222    -206.136
  H      131.443     105.515    -202.449
  H      132.611     106.196    -203.556
  H      131.083     105.599    -204.157

 3  4  5  6  7  8  9  10  11  12  23  26  30  31 0
 6-311+G(2d,p)
 ****
 33  35  36  37  38 0
 6-311+G(2d,p)
 ****
 1  2  13  14  15  16  17  18  19  20  21  22  24  25 0
 3-21G
 ****
 27  28  29  32  34  39  40  41  42  43  44  45  46  47  48  49 0
 3-21G
 ****


