%nproc=1
%NoSave
%Mem=1900MB
#P OB98/GEN NMR

erre ene a

0 1
  C      -17.728    -124.164    -100.219
  O      -16.387    -124.323     -99.743
  P      -15.982    -125.791     -99.236
  C      -16.245    -125.584     -96.660
  O      -16.784    -126.082     -97.878
  C      -17.229    -125.791     -95.505
  O      -17.880    -127.072     -95.562
  C      -16.572    -125.714     -94.132
  O      -16.372    -124.362     -93.763
  C      -17.595    -126.431     -93.261
  O      -18.651    -125.537     -92.847
  C      -18.145    -127.511     -94.205
  N      -17.080    -131.124     -90.807
  C      -17.515    -129.825     -90.615
  N      -17.716    -129.444     -89.337
  N      -17.729    -128.978     -91.588
  C      -17.493    -129.499     -92.814
  C      -17.087    -130.775     -93.135
  C      -16.848    -131.700     -92.052
  O      -16.487    -132.866     -92.171
  N      -17.009    -130.951     -94.497
  C      -17.240    -129.744     -94.986
  N      -17.603    -128.843     -94.012
  O      -14.464    -125.611     -98.759
  O      -16.106    -126.840    -100.290
  H      -19.341    -126.050     -92.390
  H      -13.867    -126.077     -99.376
  H      -16.923    -131.730     -90.023
  H      -17.187    -129.481     -96.030
  H      -19.235    -127.609     -94.109
  H      -17.148    -126.819     -92.343
  H      -17.570    -130.042     -88.538
  H      -15.625    -126.270     -94.135
  H      -18.040    -128.498     -89.172
  H      -18.000    -125.012     -95.589
  H      -16.010    -124.523     -96.763
  H      -15.296    -126.098     -96.460
  P      -14.904    -123.742     -93.946
  C      -14.365    -123.307     -91.441
  O      -14.080    -124.056     -92.607
  O      -15.167    -122.162     -93.876
  O      -14.227    -124.124     -95.219
  H      -14.651    -121.719     -94.580
  H      -14.161    -123.929     -90.565
  H      -15.410    -122.985     -91.410
  H      -13.714    -122.427     -91.414
  H      -17.879    -123.151    -100.527
  H      -18.416    -124.405     -99.435
  H      -17.891    -124.818    -101.050

 3  4  5  6  7  8  9  10  11  12  23  26  30  31 0
 6-311+G(2d,p)
 ****
 33  35  36  37  38 0
 6-311+G(2d,p)
 ****
 1  2  13  14  15  16  17  18  19  20  21  22  24  25 0
 3-21G
 ****
 27  28  29  32  34  39  40  41  42  43  44  45  46  47  48  49 0
 3-21G
 ****


