%nproc=1
%NoSave
%Mem=1900MB
#P OB98/GEN NMR

erre ene a

0 1
  C     -200.728     -23.819       2.517
  O     -200.095     -22.872       1.680
  H     -201.770     -23.537       2.692
  H     -200.703     -24.795       2.024
  H     -200.196     -23.891       3.471
  P     -200.124     -21.348       2.183
  C     -201.975     -19.600       2.669
  O     -201.665     -20.898       2.186
  C     -203.283     -19.111       2.062
  O     -203.127     -18.898       0.644
  C     -204.451     -20.081       2.197
  O     -205.030     -20.039       3.493
  C     -205.398     -19.529       1.141
  O     -206.110     -18.395       1.674
  C     -204.434     -19.072       0.036
  N     -206.221     -20.422      -4.585
  C     -206.560     -19.417      -3.746
  N     -206.052     -19.126      -2.532
  C     -205.078     -19.992      -2.201
  C     -204.625     -21.062      -2.954
  C     -205.243     -21.273      -4.197
  N     -204.902     -22.310      -5.039
  N     -203.605     -21.719      -2.301
  C     -203.443     -21.058      -1.172
  N     -204.317     -20.009      -1.064
  O     -199.505     -20.535       0.947
  O     -199.375     -21.077       3.444
  H     -206.623     -18.721       2.436
  H     -198.977     -19.790       1.292
  H     -207.346     -18.754      -4.100
  H     -202.708     -21.298      -0.414
  H     -204.726     -18.098      -0.374
  H     -206.143     -20.257       0.810
  H     -204.155     -21.099       1.920
  H     -203.528     -18.143       2.520
  H     -201.172     -18.908       2.394
  H     -205.235     -22.293      -5.987
  H     -204.162     -22.938      -4.741
  H     -202.051     -19.638       3.761
  P     -205.431     -21.440       4.170
  C     -207.171     -23.278       3.598
  O     -206.740     -21.939       3.387
  O     -206.002     -21.000       5.600
  O     -204.320     -22.424       4.295
  H     -205.906     -21.736       6.235
  H     -208.048     -23.466       3.015
  H     -207.394     -23.422       4.635
  H     -206.395     -23.953       3.303

 6  7  8  9  10  11  12  13  14  15  25  28  32  33  34  35 0
 6-311+G(2d,p)
 ****
 36  39  40 0
 6-311+G(2d,p)
 ****
 1  2  3  4  5  16  17  18  19  20  21  22  23  24 0
 3-21G
 ****
 26  27  29  30  31  37  38  41  42  43  44  45  46  47  48 0
 3-21G
 ****


