%nproc=1
%NoSave
%Mem=1900MB
#P OB98/GEN NMR

erre ene a

0 1
  C      271.898     191.404    -310.416
  O      272.227     192.768    -310.601
  H      270.826     191.279    -310.586
  H      272.133     191.088    -309.397
  H      272.440     190.782    -311.135
  P      273.743     193.224    -310.370
  C      273.417     194.592    -308.203
  O      273.673     194.631    -309.602
  C      273.179     196.002    -307.669
  O      274.426     196.715    -307.554
  C      272.273     196.864    -308.551
  O      270.911     196.565    -308.306
  C      272.663     198.252    -308.070
  O      272.037     198.518    -306.800
  C      274.183     198.106    -307.886
  N      275.916     201.871    -310.819
  C      275.010     201.906    -309.776
  N      274.464     203.108    -309.495
  N      274.660     200.857    -309.081
  C      275.230     199.711    -309.518
  C      276.128     199.546    -310.550
  C      276.558     200.728    -311.267
  O      277.377     200.742    -312.180
  N      276.416     198.222    -310.760
  C      275.736     197.591    -309.823
  N      274.991     198.448    -309.047
  O      274.619     193.241    -311.587
  O      274.292     192.224    -309.247
  H      272.581     199.188    -306.346
  H      274.715     191.444    -309.649
  H      276.141     202.713    -311.322
  H      275.745     196.518    -309.660
  H      274.557     198.715    -307.053
  H      272.346     199.041    -308.757
  H      274.579     203.920    -310.085
  H      272.534     196.767    -309.609
  H      273.754     203.143    -308.772
  H      272.766     195.911    -306.655
  H      274.291     194.144    -307.720
  H      272.542     193.968    -307.992
  P      269.995     195.852    -309.421
  C      268.682     198.033    -309.889
  O      268.627     196.688    -309.441
  O      269.826     194.382    -309.247
  O      270.664     196.279    -310.807
  H      271.408     195.684    -311.076
  H      267.703     198.463    -309.848
  H      269.041     198.059    -310.896
  H      269.343     198.592    -309.260

 6  7  8  9  10  11  12  13  14  15  26  29  33  34 0
 6-311+G(2d,p)
 ****
 36  38  39  40  41 0
 6-311+G(2d,p)
 ****
 1  2  3  4  5  16  17  18  19  20  21  22  23  24  25 0
 3-21G
 ****
 27  28  30  31  32  35  37  42  43  44  45  46  47 0
 3-21G
 ****
 48  49 0
 3-21G
 ****


