%nproc=1
%NoSave
%Mem=1900MB
#P OB98/GEN NMR

erre ene a

0 1
  C      241.710     231.973     118.716
  O      242.635     233.015     118.955
  H      241.600     231.387     119.632
  H      242.081     231.320     117.922
  H      240.735     232.384     118.439
  P      242.803     234.110     117.788
  C      245.379     233.972     117.312
  O      244.303     234.655     117.929
  C      246.681     234.220     118.075
  O      247.038     235.617     117.942
  C      246.594     233.902     119.567
  O      247.838     233.342     119.989
  C      246.393     235.263     120.212
  O      246.814     235.275     121.575
  C      247.190     236.172     119.266
  N      246.737     237.558     119.317
  C      247.152     238.316     120.420
  O      247.846     237.801     121.296
  N      246.737     239.619     120.524
  C      245.919     240.106     119.643
  N      245.528     241.398     119.814
  C      245.413     239.328     118.494
  C      245.864     238.083     118.389
  O      241.904     235.313     118.343
  O      242.420     233.622     116.433
  H      247.020     236.203     121.822
  H      242.003     235.467     119.297
  H      244.720     239.776     117.794
  H      245.552     237.442     117.570
  H      248.258     236.147     119.517
  H      245.328     235.532     120.188
  H      245.781     233.217     119.819
  H      247.480     233.645     117.594
  H      245.881     241.891     120.625
  H      245.496     234.303     116.275
  H      244.855     241.860     119.222
  H      245.142     232.903     117.304
  P      248.231     231.862     119.517
  C      248.430     231.148     121.987
  O      249.032     231.134     120.701
  O      248.862     231.755     118.170
  O      246.818     231.093     119.541
  H      246.794     230.488     118.775
  H      249.060     230.633     122.682
  H      247.478     230.661     121.941
  H      248.298     232.160     122.308

 6  7  8  9  10  11  12  13  14  15  16  26  30  31  32  33  35 0
 6-311+G(2d,p)
 ****
 37  38 0
 6-311+G(2d,p)
 ****
 1  2  3  4  5  17  18  19  20  21  22  23  24  25 0
 3-21G
 ****
 27  28  29  34  36  39  40  41  42  43  44  45  46 0
 3-21G
 ****


