%nproc=1
%NoSave
%Mem=1900MB
#P OB98/GEN NMR

erre ene a

0 1
  C      511.866     449.310    -120.372
  O      512.930     449.718    -119.538
  H      511.050     450.030    -120.274
  H      511.503     448.329    -120.056
  H      512.175     449.274    -121.419
  P      514.357     449.010    -119.703
  C      515.769     450.934    -120.676
  O      515.078     449.723    -120.947
  C      514.994     452.137    -121.221
  O      513.664     452.146    -120.627
  C      515.645     453.494    -120.908
  O      515.314     454.385    -121.981
  C      514.916     453.900    -119.643
  O      515.057     455.280    -119.384
  C      513.500     453.412    -119.958
  N      512.668     453.300    -118.762
  C      511.778     454.340    -118.526
  O      511.695     455.334    -119.248
  N      511.009     454.231    -117.401
  C      511.088     453.231    -116.475
  O      510.397     453.200    -115.467
  C      512.080     452.179    -116.755
  C      512.809     452.258    -117.870
  O      514.338     447.520    -119.765
  O      515.207     449.543    -118.454
  H      514.926     455.793    -120.210
  H      515.860     448.870    -118.182
  H      510.351     454.972    -117.219
  H      512.173     451.377    -116.037
  H      513.547     451.497    -118.103
  H      512.999     454.098    -120.655
  H      515.320     453.364    -118.777
  H      516.726     453.431    -120.780
  H      514.856     452.006    -122.302
  H      516.751     450.877    -121.158
  H      515.910     451.041    -119.595
  P      516.426     454.964    -122.981
  C      515.110     455.278    -125.171
  O      516.073     454.494    -124.474
  O      517.834     454.676    -122.568
  O      516.160     456.543    -123.016
  H      516.991     457.012    -123.211
  H      514.958     454.870    -126.149
  H      515.463     456.285    -125.255
  H      514.185     455.268    -124.633

 6  7  8  9  10  11  12  13  14  15  16  26  31  32  33  34  35 0
 6-311+G(2d,p)
 ****
 36  37 0
 6-311+G(2d,p)
 ****
 1  2  3  4  5  17  18  19  20  21  22  23  24  25 0
 3-21G
 ****
 27  28  29  30  38  39  40  41  42  43  44  45 0
 3-21G
 ****


