%nproc=1
%NoSave
%Mem=1900MB
#P OB98/GEN NMR

erre ene a

0 1
  C       18.775     121.856      88.148
  O       17.988     120.691      88.296
  H       19.366     121.764      87.232
  H       19.460     121.959      88.994
  H       18.143     122.744      88.067
  P       16.948     120.610      89.513
  C       17.071     120.736      92.078
  O       17.807     120.748      90.863
  C       18.009     120.574      93.273
  O       18.519     119.215      93.286
  C       19.210     121.527      93.246
  O       19.485     121.947      94.582
  C       20.342     120.653      92.743
  O       21.618     121.112      93.184
  C       19.958     119.286      93.307
  N       24.233     116.784      92.310
  C       23.980     117.787      93.224
  N       25.024     118.208      93.970
  N       22.803     118.334      93.392
  C       21.847     117.807      92.588
  C       21.973     116.815      91.645
  C       23.283     116.228      91.458
  O       23.570     115.347      90.657
  N       20.776     116.576      91.014
  C       19.932     117.424      91.576
  N       20.537     118.200      92.529
  O       16.022     119.436      89.488
  O       16.155     121.996      89.439
  H       21.684     120.903      94.141
  H       15.286     121.874      89.010
  H       25.160     116.405      92.215
  H       18.883     117.521      91.325
  H       20.298     119.150      94.341
  H       20.341     120.640      91.646
  H       25.953     117.822      93.908
  H       19.047     122.400      92.607
  H       24.857     118.927      94.666
  H       17.426     120.703      94.192
  H       16.367     119.896      92.045
  H       16.504     121.669      92.169
  P       18.751     123.255      95.148
  C       18.896     125.809      94.843
  O       19.401     124.540      94.441
  O       18.631     123.338      96.634
  O       17.304     123.175      94.456
  H       16.648     123.596      95.047
  H       19.404     126.582      94.305
  H       19.056     125.940      95.893
  H       17.848     125.859      94.633

 6  7  8  9  10  11  12  13  14  15  26  29  33  34 0
 6-311+G(2d,p)
 ****
 36  38  39  40  41 0
 6-311+G(2d,p)
 ****
 1  2  3  4  5  16  17  18  19  20  21  22  23  24  25 0
 3-21G
 ****
 27  28  30  31  32  35  37  42  43  44  45  46  47 0
 3-21G
 ****
 48  49 0
 3-21G
 ****


