%nproc=1
%NoSave
%Mem=1900MB
#P OB98/GEN NMR

erre ene a

0 1
  C      244.755    -623.034    -120.569
  O      244.131    -621.853    -121.090
  P      242.635    -621.507    -120.617
  C      241.111    -619.429    -120.513
  O      242.333    -619.979    -121.004
  C      241.178    -617.899    -120.473
  O      242.196    -617.431    -119.569
  C      241.512    -617.283    -121.832
  O      240.401    -617.342    -122.710
  C      241.954    -615.882    -121.419
  O      240.811    -615.028    -121.221
  C      242.647    -616.145    -120.061
  N      244.102    -616.089    -120.146
  C      244.661    -614.818    -120.343
  O      243.936    -613.839    -120.462
  N      246.031    -614.702    -120.395
  C      246.764    -615.762    -120.276
  N      248.122    -615.583    -120.344
  C      246.233    -617.128    -120.085
  C      244.896    -617.213    -120.039
  O      242.301    -621.888    -119.217
  O      241.731    -622.309    -121.668
  H      240.407    -614.911    -122.111
  H      240.887    -622.567    -121.227
  H      246.887    -617.977    -119.993
  H      244.404    -618.181    -119.911
  H      242.323    -615.406    -119.323
  H      242.583    -615.412    -122.170
  H      242.368    -617.820    -122.274
  H      240.193    -617.535    -120.134
  H      248.471    -614.646    -120.487
  H      240.918    -619.815    -119.508
  H      248.779    -616.335    -120.212
  H      240.287    -619.776    -121.152
  P      240.335    -618.558    -123.746
  C      238.864    -619.144    -125.805
  O      239.319    -618.144    -124.909
  O      239.527    -619.675    -122.926
  O      241.660    -619.085    -124.196
  H      239.843    -620.568    -123.174
  H      237.981    -618.784    -126.314
  H      238.616    -620.074    -125.264
  H      239.636    -619.366    -126.549
  H      245.741    -623.125    -120.975
  H      244.176    -623.892    -120.840
  H      244.814    -622.966    -119.503

 3  4  5  6  7  8  9  10  11  12  13  23  27  28  29  30  32 0
 6-311+G(2d,p)
 ****
 34  35 0
 6-311+G(2d,p)
 ****
 1  2  14  15  16  17  18  19  20  21  22  24  25  26 0
 3-21G
 ****
 31  33  36  37  38  39  40  41  42  43  44  45  46 0
 3-21G
 ****


