%nproc=1
%NoSave
%Mem=1900MB
#P OB98/GEN NMR

erre ene a

0 1
  C       -6.904     401.075     942.623
  O       -8.305     401.060     942.869
  P       -8.949     400.187     944.047
  C      -10.149     402.251     945.120
  O      -10.299     400.946     944.532
  C      -11.496     402.965     945.311
  O      -12.113     403.222     944.031
  C      -12.467     402.052     946.087
  O      -12.426     402.010     947.496
  C      -13.854     402.374     945.492
  O      -14.580     403.294     946.293
  C      -13.516     402.990     944.135
  N      -17.465     401.423     941.326
  C      -17.389     402.483     942.217
  N      -18.566     403.062     942.523
  N      -16.279     402.896     942.754
  C      -15.200     402.136     942.420
  C      -15.122     401.081     941.544
  C      -16.368     400.665     940.922
  O      -16.490     399.665     940.190
  N      -13.883     400.518     941.499
  C      -13.187     401.211     942.389
  N      -13.945     402.183     943.002
  O       -8.023     399.634     945.075
  O       -9.559     398.941     943.216
  H      -14.086     404.139     946.344
  H       -9.489     398.142     943.775
  H      -18.350     401.103     941.010
  H      -12.151     401.033     942.655
  H      -14.002     403.966     944.023
  H      -14.460     401.474     945.444
  H      -19.464     402.670     942.243
  H      -12.265     401.028     945.772
  H      -18.567     403.739     943.303
  H      -11.357     403.958     945.771
  H       -9.489     402.829     944.448
  H       -9.649     402.161     946.080
  P      -13.057     400.872     948.440
  C      -11.470     398.838     948.428
  O      -11.860     400.046     949.096
  O      -13.693     399.808     947.383
  O      -14.108     401.341     949.390
  H      -14.377     399.275     947.827
  H      -10.885     398.234     949.122
  H      -10.875     399.094     947.558
  H      -12.356     398.279     948.116
  H       -6.694     401.720     941.796
  H       -6.571     400.084     942.396
  H       -6.393     401.432     943.493

 3  4  5  6  7  8  9  10  11  12  23  26  30  31 0
 6-311+G(2d,p)
 ****
 33  35  36  37  38 0
 6-311+G(2d,p)
 ****
 1  2  13  14  15  16  17  18  19  20  21  22  24  25 0
 3-21G
 ****
 27  28  29  32  34  39  40  41  42  43  44  45  46  47  48  49 0
 3-21G
 ****


