%nproc=1
%NoSave
%Mem=1900MB
#P OB98/GEN NMR

erre ene a

0 1
  C       53.030     -53.844       1.497
  O       52.531     -54.549       0.378
  H       53.215     -52.799       1.233
  H       52.284     -53.878       2.294
  H       53.953     -54.307       1.857
  P       53.498     -54.642      -0.899
  C       52.585     -52.347      -1.695
  O       53.728     -53.133      -1.395
  C       53.004     -50.922      -2.043
  O       53.777     -50.354      -0.967
  C       53.879     -50.801      -3.285
  O       53.112     -50.852      -4.478
  C       54.485     -49.422      -3.071
  O       53.532     -48.410      -3.447
  C       54.703     -49.401      -1.551
  N       59.587     -47.879      -1.489
  C       58.454     -47.260      -1.884
  N       57.187     -47.722      -1.851
  C       57.148     -48.957      -1.326
  C       58.213     -49.708      -0.858
  C       59.487     -49.124      -0.958
  N       60.647     -49.796      -0.612
  N       57.781     -50.939      -0.404
  C       56.482     -50.936      -0.613
  N       56.053     -49.759      -1.162
  O       52.542     -55.272      -2.022
  O       54.733     -55.455      -0.704
  H       53.852     -47.570      -3.067
  H       52.695     -56.233      -2.069
  H       58.582     -46.260      -2.286
  H       55.818     -51.759      -0.389
  H       54.478     -48.422      -1.115
  H       55.388     -49.253      -3.664
  H       54.681     -51.548      -3.287
  H       52.092     -50.320      -2.149
  H       51.919     -52.325      -0.826
  H       61.462     -49.497      -1.140
  H       60.530     -50.794      -0.481
  H       52.056     -52.804      -2.537
  P       53.725     -51.654      -5.725
  C       54.736     -49.391      -6.465
  O       54.959     -50.780      -6.266
  O       52.604     -51.469      -6.853
  O       54.011     -53.095      -5.479
  H       52.312     -52.343      -7.174
  H       55.634     -48.934      -6.824
  H       54.452     -48.939      -5.538
  H       53.954     -49.255      -7.183

 6  7  8  9  10  11  12  13  14  15  25  28  32  33  34  35 0
 6-311+G(2d,p)
 ****
 36  39  40 0
 6-311+G(2d,p)
 ****
 1  2  3  4  5  16  17  18  19  20  21  22  23  24 0
 3-21G
 ****
 26  27  29  30  31  37  38  41  42  43  44  45  46  47  48 0
 3-21G
 ****


