%nproc=1
%NoSave
%Mem=1900MB
#P OB98/GEN NMR

erre ene a

0 1
  C     -160.379    -404.778     386.041
  O     -159.941    -405.959     386.687
  H     -160.680    -404.056     386.804
  H     -161.235    -404.996     385.397
  H     -159.564    -404.356     385.452
  P     -159.485    -407.172     385.740
  C     -157.070    -406.321     386.051
  O     -158.083    -406.681     385.119
  C     -156.022    -405.426     385.382
  O     -156.700    -404.290     384.788
  C     -154.978    -404.883     386.358
  O     -153.698    -404.855     385.715
  C     -155.443    -403.459     386.623
  O     -154.372    -402.603     387.015
  C     -156.092    -403.094     385.289
  N     -157.062    -398.145     384.513
  C     -156.040    -398.934     384.128
  N     -155.867    -400.259     384.360
  C     -156.918    -400.755     385.044
  C     -158.027    -400.074     385.498
  C     -158.076    -398.697     385.220
  N     -159.107    -397.876     385.634
  N     -158.870    -400.930     386.189
  C     -158.279    -402.107     386.136
  N     -157.086    -402.050     385.457
  O     -160.497    -407.630     384.742
  O     -159.025    -408.268     386.810
  H     -153.715    -402.587     386.287
  H     -158.489    -407.869     387.521
  H     -155.256    -398.447     383.558
  H     -158.662    -403.021     386.570
  H     -155.364    -402.732     384.549
  H     -156.188    -403.463     387.429
  H     -154.913    -405.469     387.276
  H     -155.549    -405.983     384.563
  H     -156.584    -407.222     386.449
  H     -159.069    -396.901     385.372
  H     -159.879    -398.279     386.142
  H     -157.548    -405.791     386.882
  P     -152.666    -406.033     386.027
  C     -152.463    -406.777     383.564
  O     -152.802    -407.166     384.894
  O     -152.651    -406.538     387.434
  O     -151.255    -405.359     385.660
  H     -150.581    -405.670     386.303
  H     -152.593    -407.610     382.905
  H     -151.443    -406.455     383.536
  H     -153.099    -405.974     383.254

 6  7  8  9  10  11  12  13  14  15  25  28  32  33  34  35 0
 6-311+G(2d,p)
 ****
 36  39  40 0
 6-311+G(2d,p)
 ****
 1  2  3  4  5  16  17  18  19  20  21  22  23  24 0
 3-21G
 ****
 26  27  29  30  31  37  38  41  42  43  44  45  46  47 0
 3-21G
 ****
 48 0
 3-21G
 ****


