%nproc=1
%NoSave
%Mem=1900MB
#P OB98/GEN NMR

erre ene a

0 1
  C      278.236     108.498      -4.537
  O      277.283     108.966      -3.609
  H      278.356     107.420      -4.406
  H      279.201     108.980      -4.359
  H      277.907     108.694      -5.562
  P      276.829     110.501      -3.726
  C      274.302     109.927      -3.556
  O      275.406     110.617      -2.988
  C      272.992     110.429      -2.948
  O      272.956     110.058      -1.546
  C      272.813     111.947      -3.039
  O      271.437     112.229      -3.307
  C      273.167     112.434      -1.646
  O      272.554     113.683      -1.327
  C      272.711     111.253      -0.779
  N      273.410     111.228       0.502
  C      272.701     111.686       1.615
  O      271.544     112.095       1.487
  N      273.328     111.730       2.832
  C      274.586     111.423       2.917
  N      275.161     111.512       4.147
  C      275.396     110.998       1.757
  C      274.748     110.917       0.594
  O      276.453     110.659      -5.272
  O      277.840     111.503      -3.280
  H      273.116     114.404      -1.686
  H      276.638     111.564      -5.591
  H      276.445     110.778       1.874
  H      275.260     110.621      -0.312
  H      271.631     111.309      -0.589
  H      274.254     112.564      -1.568
  H      273.437     112.410      -3.809
  H      272.160     109.908      -3.438
  H      274.577     111.825       4.914
  H      274.404     108.857      -3.348
  H      276.140     111.343       4.322
  H      274.301     110.075      -4.642
  P      271.116     113.029      -4.660
  C      269.439     111.424      -5.829
  O      269.632     112.646      -5.127
  O      272.052     112.313      -5.742
  O      271.394     114.493      -4.572
  H      272.786     112.903      -5.992
  H      268.403     111.311      -6.070
  H      269.753     110.606      -5.215
  H      270.016     111.435      -6.730

 6  7  8  9  10  11  12  13  14  15  16  26  30  31  32  33  35 0
 6-311+G(2d,p)
 ****
 37  38 0
 6-311+G(2d,p)
 ****
 1  2  3  4  5  17  18  19  20  21  22  23  24  25 0
 3-21G
 ****
 27  28  29  34  36  39  40  41  42  43  44  45  46 0
 3-21G
 ****


