%nproc=1
%NoSave
%Mem=1900MB
#P OB98/GEN NMR

erre ene a

0 1
  C       17.624     -16.036      -4.639
  O       19.037     -15.991      -4.585
  H       17.312     -17.072      -4.795
  H       17.259     -15.428      -5.471
  H       17.198     -15.677      -3.698
  P       19.698     -14.542      -4.384
  C       19.546     -14.709      -1.801
  O       19.163     -14.001      -2.970
  C       20.246     -13.775      -0.818
  O       21.551     -13.399      -1.312
  C       19.496     -12.479      -0.539
  O       18.490     -12.669       0.441
  C       20.625     -11.580      -0.056
  O       20.938     -11.824       1.330
  C       21.787     -12.009      -0.963
  N       22.519      -7.337      -2.726
  C       22.497      -7.806      -1.430
  N       22.639      -6.881      -0.455
  N       22.340      -9.064      -1.114
  C       22.177      -9.867      -2.191
  C       22.195      -9.526      -3.523
  C       22.402      -8.133      -3.858
  O       22.497      -7.664      -4.988
  N       22.014     -10.625      -4.320
  C       21.847     -11.622      -3.473
  N       21.920     -11.209      -2.168
  O       18.920     -13.626      -5.444
  O       21.173     -14.479      -4.584
  H       21.465     -11.083       1.674
  H       19.516     -12.918      -5.752
  H       22.662      -6.359      -2.906
  H       21.671     -12.651      -3.752
  H       22.752     -11.964      -0.445
  H       20.362     -10.524      -0.135
  H       22.430      -5.905      -0.615
  H       19.074     -12.067      -1.464
  H       22.602      -7.214       0.500
  H       20.402     -14.336       0.113
  H       20.233     -15.515      -2.081
  H       18.656     -15.145      -1.336
  P       17.291     -11.603       0.497
  C       16.411     -12.502      -1.779
  O       16.819     -11.373      -1.019
  O       18.032     -10.232       0.861
  O       16.209     -11.933       1.468
  H       17.384      -9.578       1.186
  H       16.128     -12.187      -2.762
  H       15.577     -12.971      -1.301
  H       17.221     -13.198      -1.847

 6  7  8  9  10  11  12  13  14  15  26  29  33  34 0
 6-311+G(2d,p)
 ****
 36  38  39  40  41 0
 6-311+G(2d,p)
 ****
 1  2  3  4  5  16  17  18  19  20  21  22  23  24  25 0
 3-21G
 ****
 27  28  30  31  32  35  37  42  43  44  45  46  47 0
 3-21G
 ****
 48  49 0
 3-21G
 ****


