%nproc=1
%NoSave
%Mem=1900MB
#P OB98/GEN NMR

erre ene a

0 1
  C     -653.056    -161.592     330.330
  O     -652.210    -161.460     329.210
  H     -652.749    -160.866     331.089
  H     -652.955    -162.598     330.749
  H     -654.102    -161.405     330.071
  P     -652.690    -162.052     327.806
  C     -653.278    -164.368     326.817
  O     -652.768    -163.654     327.940
  C     -652.694    -165.782     326.736
  O     -652.957    -166.492     327.967
  C     -653.314    -166.608     325.604
  O     -652.683    -166.441     324.349
  C     -653.141    -168.034     326.124
  O     -651.869    -168.580     325.742
  C     -653.215    -167.864     327.646
  N     -656.031    -171.621     329.675
  C     -654.790    -171.700     329.070
  N     -654.254    -172.934     328.962
  N     -654.151    -170.653     328.602
  C     -654.851    -169.506     328.691
  C     -656.102    -169.308     329.255
  C     -656.773    -170.457     329.837
  O     -657.856    -170.438     330.399
  N     -656.515    -168.005     329.122
  C     -655.558    -167.431     328.412
  N     -654.494    -168.289     328.199
  O     -651.412    -161.850     326.854
  O     -653.906    -161.401     327.212
  H     -651.900    -168.776     324.784
  H     -651.707    -161.702     325.935
  H     -656.463    -172.452     330.039
  H     -655.560    -166.407     328.069
  H     -652.445    -168.457     328.151
  H     -653.905    -168.692     325.709
  H     -654.738    -173.782     329.226
  H     -654.384    -166.405     325.518
  H     -653.438    -173.062     328.356
  H     -651.596    -165.717     326.629
  H     -652.998    -163.795     325.931
  H     -654.370    -164.405     326.854
  P     -653.466    -166.784     322.992
  C     -654.069    -169.006     321.728
  O     -653.732    -168.355     322.935
  O     -652.352    -166.551     321.858
  O     -654.696    -165.969     322.738
  H     -652.459    -165.676     321.449
  H     -654.203    -170.051     321.912
  H     -653.282    -168.867     321.016
  H     -654.977    -168.592     321.341

 6  7  8  9  10  11  12  13  14  15  26  29  33  34 0
 6-311+G(2d,p)
 ****
 36  38  39  40  41 0
 6-311+G(2d,p)
 ****
 1  2  3  4  5  16  17  18  19  20  21  22  23  24  25 0
 3-21G
 ****
 27  28  30  31  32  35  37  42  43  44  45  46  47 0
 3-21G
 ****
 48  49 0
 3-21G
 ****


