%nproc=1
%NoSave
%Mem=1900MB
#P OB98/GEN NMR

erre ene a

0 1
  C     1173.554     248.761     551.628
  O     1172.338     249.411     551.969
  H     1173.320     247.904     550.996
  H     1174.043     248.407     552.532
  H     1174.210     249.439     551.083
  P     1172.449     250.861     552.631
  C     1172.489     250.116     555.119
  O     1173.215     250.682     554.035
  C     1173.068     250.595     556.457
  O     1172.318     249.977     557.529
  C     1174.549     250.241     556.653
  O     1175.199     251.333     557.319
  C     1174.507     249.037     557.573
  O     1175.709     248.889     558.331
  C     1173.269     249.342     558.406
  N     1173.798     245.997     562.145
  C     1174.479     247.164     561.907
  N     1175.455     247.513     562.763
  N     1174.226     247.950     560.875
  C     1173.198     247.518     560.107
  C     1172.446     246.365     560.248
  C     1172.752     245.502     561.359
  O     1172.202     244.442     561.620
  N     1171.519     246.262     559.249
  C     1171.704     247.323     558.503
  N     1172.711     248.129     558.991
  O     1170.943     251.182     553.072
  O     1172.993     251.933     551.748
  H     1175.618     248.066     558.854
  H     1170.602     251.940     552.560
  H     1174.028     245.415     562.943
  H     1171.151     247.575     557.610
  H     1173.487     250.017     559.248
  H     1174.363     248.114     556.973
  H     1175.661     246.972     563.597
  H     1175.058     250.026     555.712
  H     1175.947     248.383     562.623
  H     1172.906     251.682     556.536
  H     1172.559     249.018     555.063
  H     1171.441     250.412     555.045
  P     1176.330     252.108     556.502
  C     1178.358     250.635     557.147
  O     1177.488     251.059     556.120
  O     1177.028     253.037     557.609
  O     1175.829     252.937     555.351
  H     1176.763     253.965     557.477
  H     1179.071     249.944     556.748
  H     1177.792     250.158     557.919
  H     1178.871     251.482     557.552

 6  7  8  9  10  11  12  13  14  15  26  29  33  34 0
 6-311+G(2d,p)
 ****
 36  38  39  40  41 0
 6-311+G(2d,p)
 ****
 1  2  3  4  5  16  17  18  19  20  21  22  23  24  25 0
 3-21G
 ****
 27  28  30  31  32  35  37  42  43  44  45  46  47 0
 3-21G
 ****
 48  49 0
 3-21G
 ****


