%nproc=1
%NoSave
%Mem=1900MB
#P OB98/GEN NMR

erre ene a

0 1
  C      542.939    -465.003     381.282
  O      544.093    -464.291     380.890
  H      542.844    -465.889     380.651
  H      542.052    -464.375     381.136
  H      543.000    -465.319     382.326
  P      544.631    -463.109     381.830
  C      544.863    -461.279     380.027
  O      545.544    -462.170     380.900
  C      545.630    -461.117     378.708
  O      545.231    -462.184     377.796
  C      545.369    -459.777     377.996
  O      546.567    -459.437     377.278
  C      544.264    -460.159     377.029
  O      544.131    -459.200     375.994
  C      544.723    -461.556     376.604
  N      543.643    -462.334     375.987
  C      543.362    -462.055     374.657
  O      543.943    -461.179     374.004
  N      542.352    -462.784     374.091
  C      541.568    -463.702     374.737
  O      540.651    -464.303     374.190
  C      541.888    -463.921     376.158
  C      542.898    -463.243     376.710
  O      545.276    -463.537     383.105
  O      543.343    -462.194     382.091
  H      543.367    -459.426     375.420
  H      543.406    -461.763     382.966
  H      542.139    -462.601     373.122
  H      541.278    -464.631     376.705
  H      543.157    -463.387     377.751
  H      545.549    -461.493     375.877
  H      543.297    -460.216     377.545
  H      545.086    -458.972     378.673
  H      546.702    -461.255     378.902
  H      544.782    -460.307     380.527
  H      543.857    -461.661     379.820
  P      547.257    -457.993     377.414
  C      547.130    -457.049     375.010
  O      547.967    -457.623     376.017
  O      548.141    -457.845     378.609
  O      546.032    -456.963     377.489
  H      546.297    -456.172     378.001
  H      547.712    -456.848     374.135
  H      546.708    -456.136     375.375
  H      546.344    -457.733     374.767

 6  7  8  9  10  11  12  13  14  15  16  26  31  32  33  34  35 0
 6-311+G(2d,p)
 ****
 36  37 0
 6-311+G(2d,p)
 ****
 1  2  3  4  5  17  18  19  20  21  22  23  24  25 0
 3-21G
 ****
 27  28  29  30  38  39  40  41  42  43  44  45 0
 3-21G
 ****


