%nproc=1
%NoSave
%Mem=1900MB
#P OB98/GEN NMR

erre ene a

0 1
  C     -803.153    1346.215    -114.552
  O     -802.541    1345.020    -115.013
  H     -802.665    1347.059    -115.028
  H     -803.031    1346.305    -113.470
  H     -804.206    1346.216    -114.815
  P     -803.096    1343.644    -114.390
  C     -801.846    1344.339    -112.220
  O     -803.067    1343.895    -112.798
  C     -801.884    1344.190    -110.698
  O     -802.948    1344.984    -110.152
  C     -802.124    1342.782    -110.215
  O     -800.899    1342.043    -110.197
  C     -802.631    1343.031    -108.805
  O     -801.523    1343.276    -107.917
  C     -803.463    1344.315    -108.979
  N     -808.131    1345.815    -107.439
  C     -806.888    1346.090    -106.955
  N     -805.718    1345.616    -107.377
  C     -805.860    1344.777    -108.438
  C     -807.067    1344.406    -109.029
  C     -808.242    1344.956    -108.496
  N     -809.485    1344.682    -108.986
  N     -806.833    1343.521    -110.064
  C     -805.532    1343.420    -110.131
  N     -804.897    1344.123    -109.147
  O     -802.432    1342.404    -114.878
  O     -804.655    1343.762    -114.726
  H     -800.893    1343.842    -108.399
  H     -804.969    1344.672    -114.591
  H     -806.858    1346.778    -106.126
  H     -804.994    1342.855    -110.887
  H     -803.336    1345.002    -108.130
  H     -803.180    1342.176    -108.394
  H     -802.886    1342.256    -110.793
  H     -800.946    1344.583    -110.306
  H     -801.662    1345.389    -112.495
  H     -810.278    1344.984    -108.437
  H     -809.575    1343.957    -109.681
  H     -801.047    1343.726    -112.638
  P     -800.875    1340.452    -110.399
  C     -800.724    1339.460    -108.040
  O     -801.592    1339.854    -109.095
  O     -799.530    1339.889    -110.723
  O     -801.956    1340.198    -111.547
  H     -801.823    1339.292    -111.946
  H     -801.303    1339.078    -107.225
  H     -800.158    1340.306    -107.710
  H     -800.058    1338.700    -108.391

 6  7  8  9  10  11  12  13  14  15  25  28  32  33  34  35 0
 6-311+G(2d,p)
 ****
 36  39  40 0
 6-311+G(2d,p)
 ****
 1  2  3  4  5  16  17  18  19  20  21  22  23  24 0
 3-21G
 ****
 26  27  29  30  31  37  38  41  42  43  44  45  46  47 0
 3-21G
 ****
 48 0
 3-21G
 ****


