%nproc=1
%NoSave
%Mem=1900MB
#P OB98/GEN NMR

erre ene a

0 1
  C     -674.954     458.287    -278.496
  O     -673.597     458.160    -278.931
  P     -673.202     456.761    -279.626
  C     -672.175     455.118    -277.873
  O     -673.361     455.592    -278.525
  C     -672.509     454.250    -276.662
  O     -673.356     453.156    -277.065
  C     -671.277     453.634    -275.962
  O     -671.507     453.619    -274.545
  C     -671.296     452.192    -276.445
  O     -670.588     451.326    -275.554
  C     -672.800     451.950    -276.518
  N     -673.849     446.988    -276.533
  C     -673.651     447.851    -275.466
  N     -673.724     447.304    -274.233
  N     -673.405     449.128    -275.608
  C     -673.393     449.537    -276.901
  C     -673.575     448.791    -278.034
  C     -673.796     447.366    -277.872
  O     -673.919     446.540    -278.789
  N     -673.476     449.570    -279.176
  C     -673.231     450.775    -278.723
  N     -673.165     450.807    -277.357
  O     -671.619     456.884    -279.828
  O     -673.900     456.515    -280.920
  H     -671.026     451.380    -274.686
  H     -671.392     456.759    -280.772
  H     -674.013     446.012    -276.373
  H     -673.071     451.654    -279.328
  H     -673.224     451.799    -275.524
  H     -670.820     452.132    -277.427
  H     -673.966     446.346    -274.049
  H     -670.327     454.134    -276.178
  H     -673.638     447.931    -273.438
  H     -673.086     454.859    -275.948
  H     -671.563     455.980    -277.553
  H     -671.587     454.552    -278.601
  P     -671.154     454.966    -273.740
  C     -668.690     454.789    -272.900
  O     -669.581     455.181    -273.929
  O     -671.297     454.537    -272.199
  O     -672.034     456.126    -274.090
  H     -671.526     455.303    -271.661
  H     -669.207     454.193    -272.134
  H     -668.291     455.681    -272.422
  H     -667.888     454.200    -273.324
  H     -675.098     459.250    -278.053
  H     -675.170     457.527    -277.774
  H     -675.609     458.178    -279.335

 3  4  5  6  7  8  9  10  11  12  23  26  30  31  33  0
 6-311+G(2d,p)
 ****
 35  36  37  38 0
 6-311+G(2d,p)
 ****
 1  2  13  14  15  16  17  18  19  20  21  22  24  25  27  28  29 0
 3-21G
 ****
 32  34  39  40  41  42  43  44  45  46  47  48  49 0
 3-21G
 ****


