%nproc=1
%NoSave
%Mem=1900MB
#P OB98/GEN NMR

erre ene a

0 1
  C      468.086     326.849     527.142
  O      468.875     325.687     526.957
  P      469.103     324.732     528.221
  C      471.584     325.512     528.461
  O      470.299     325.368     529.075
  C      472.687     325.205     529.465
  O      472.443     325.913     530.699
  C      472.805     323.738     529.850
  O      473.416     322.982     528.820
  C      473.610     323.845     531.152
  O      475.000     324.052     530.830
  C      473.020     325.133     531.781
  N      472.014     324.657     536.793
  C      473.150     324.917     536.112
  N      473.358     325.017     534.783
  C      472.190     324.795     534.130
  C      470.967     324.496     534.663
  C      470.879     324.432     536.058
  N      469.716     324.148     536.738
  N      470.019     324.304     533.670
  C      470.678     324.525     532.552
  N      471.997     324.838     532.770
  O      469.757     323.415     527.588
  O      467.863     324.424     528.998
  H      475.477     324.197     531.674
  H      469.475     322.622     528.070
  H      474.037     325.095     536.744
  H      470.250     324.461     531.552
  H      473.774     325.752     532.269
  H      473.534     322.967     531.774
  H      471.810     323.320     530.070
  H      473.633     325.573     529.047
  H      471.697     326.551     528.101
  H      469.782     323.976     537.727
  H      468.912     323.835     536.200
  H      471.632     324.836     527.593
  P      472.650     321.685     528.282
  C      474.017     320.657     530.192
  O      472.803     320.609     529.469
  O      473.668     321.134     527.174
  O      471.240     321.949     527.824
  H      474.574     321.079     527.504
  H      473.964     319.919     530.992
  H      474.159     321.657     530.633
  H      474.854     320.412     529.538
  H      468.021     327.386     526.219
  H      468.537     327.472     527.886
  H      467.104     326.567     527.461

 3  4  5  6  7  8  9  10  11  12  22  25  29  30  31  32 0
 6-311+G(2d,p)
 ****
 33  36  37 0
 6-311+G(2d,p)
 ****
 1  2  13  14  15  16  17  18  19  20  21  23  24  26 0
 3-21G
 ****
 27  28  34  35  38  39  40  41  42  43  44  45  46  47  48 0
 3-21G
 ****


