%nproc=1
%NoSave
%Mem=1900MB
#P OB98/GEN NMR

erre ene a

0 1
  C      120.850     200.974     -88.305
  O      122.011     200.170     -88.291
  H      119.981     200.329     -88.461
  H      120.900     201.695     -89.125
  H      120.729     201.500     -87.355
  P      123.413     200.847     -87.913
  C      124.663     202.884     -88.877
  O      123.845     201.754     -89.161
  C      124.634     203.853     -90.055
  O      123.356     204.524     -90.113
  C      125.672     204.965     -89.962
  O      126.969     204.494     -90.271
  C      125.100     205.972     -90.945
  O      125.449     205.636     -92.293
  C      123.579     205.816     -90.720
  N      123.034     206.891     -89.890
  C      122.633     208.041     -90.561
  O      122.707     208.177     -91.780
  N      122.194     209.068     -89.769
  C      122.253     209.101     -88.406
  O      122.085     210.125     -87.750
  C      122.625     207.839     -87.753
  C      123.006     206.810     -88.512
  O      124.465     199.916     -87.410
  O      123.017     201.933     -86.803
  H      123.246     201.587     -85.920
  H      125.025     206.316     -92.856
  H      121.941     209.922     -90.246
  H      122.614     207.803     -86.671
  H      123.318     205.878     -88.053
  H      123.048     205.812     -91.680
  H      125.468     206.980     -90.747
  H      125.657     205.402     -88.957
  H      124.760     203.278     -90.980
  H      125.690     202.542     -88.711
  H      124.297     203.368     -87.965
  P      128.255     205.384     -89.927
  C      128.955     207.810     -90.403
  O      128.242     206.673     -90.879
  O      129.550     204.644     -89.891
  O      127.921     206.006     -88.489
  H      128.681     205.854     -87.895
  H      128.877     208.604     -91.116
  H      129.985     207.553     -90.266
  H      128.539     208.127     -89.470

 6  7  8  9  10  11  12  13  14  15  16  27  31  32  33  34  35 0
 6-311+G(2d,p)
 ****
 36  37 0
 6-311+G(2d,p)
 ****
 1  2  3  4  5  17  18  19  20  21  22  23  24  25 0
 3-21G
 ****
 26  28  29  30  38  39  40  41  42  43  44  45 0
 3-21G
 ****


