%nproc=1
%NoSave
%Mem=1900MB
#P OB98/GEN NMR

erre ene a

0 1
  C      469.565     308.672      14.278
  O      469.075     307.329      14.337
  P      469.238     306.442      13.003
  C      466.785     306.937      12.283
  O      467.771     305.954      12.573
  C      465.549     306.295      11.656
  O      465.836     305.804      10.334
  C      465.017     305.091      12.420
  O      464.237     305.481      13.539
  C      464.142     304.433      11.358
  O      462.857     305.078      11.315
  C      464.926     304.710      10.066
  N      464.750     300.212       7.733
  C      463.731     301.100       8.024
  N      462.494     300.751       7.608
  N      463.909     302.228       8.661
  C      465.204     302.457       8.987
  C      466.298     301.658       8.758
  C      466.081     300.397       8.080
  O      466.943     299.561       7.826
  N      467.450     302.233       9.231
  C      467.059     303.393       9.718
  N      465.700     303.569       9.609
  O      469.928     305.104      13.544
  O      470.045     307.100      11.936
  H      462.327     304.616      10.635
  H      470.447     304.684      12.832
  H      464.555     299.355       7.246
  H      467.712     304.137      10.155
  H      464.268     305.027       9.249
  H      463.959     303.374      11.559
  H      462.298     299.936       7.050
  H      465.831     304.412      12.700
  H      461.742     301.407       7.779
  H      464.771     307.064      11.577
  H      467.195     307.682      11.596
  H      466.526     307.464      13.204
  P      464.839     305.167      14.994
  C      464.037     302.732      14.589
  O      464.104     303.828      15.479
  O      464.200     306.315      15.907
  O      466.330     305.162      15.060
  H      464.789     306.516      16.657
  H      464.990     302.579      14.077
  H      463.248     302.904      13.851
  H      463.797     301.830      15.158
  H      469.400     309.154      15.219
  H      469.049     309.207      13.508
  H      470.613     308.660      14.063

 3  4  5  6  7  8  9  10  11  12  23  26  30  31  33  0
 6-311+G(2d,p)
 ****
 35  36  37  38 0
 6-311+G(2d,p)
 ****
 1  2  13  14  15  16  17  18  19  20  21  22  24  25  27  28  29 0
 3-21G
 ****
 32  34  39  40  41  42  43  44  45  46  47  48  49 0
 3-21G
 ****


