%nproc=1
%NoSave
%Mem=1900MB
#P OB98/GEN NMR

erre ene a

0 1
  C     -216.769     111.974    -131.172
  O     -215.381     112.021    -130.849
  P     -214.531     113.361    -130.693
  C     -213.149     111.960    -128.959
  O     -213.175     113.004    -129.922
  C     -211.725     111.504    -128.599
  O     -211.111     110.877    -129.753
  C     -210.850     112.710    -128.243
  O     -210.883     113.251    -126.937
  C     -209.457     112.328    -128.722
  O     -208.662     111.744    -127.687
  C     -209.733     111.300    -129.825
  N     -206.403     111.513    -133.704
  C     -206.264     110.919    -132.467
  N     -205.069     110.346    -132.203
  N     -207.206     110.899    -131.561
  C     -208.316     111.582    -131.919
  C     -208.565     112.230    -133.108
  C     -207.537     112.193    -134.128
  O     -207.615     112.693    -135.244
  N     -209.798     112.831    -133.106
  C     -210.284     112.572    -131.909
  N     -209.422     111.806    -131.151
  O     -215.287     114.555    -130.214
  O     -214.041     113.667    -132.201
  H     -209.176     111.022    -127.286
  H     -213.994     114.642    -132.286
  H     -205.653     111.476    -134.373
  H     -211.249     112.901    -131.543
  H     -209.124     110.399    -129.687
  H     -208.911     113.215    -129.069
  H     -204.267     110.431    -132.807
  H     -211.165     113.534    -128.895
  H     -204.888     110.103    -131.226
  H     -211.746     110.741    -127.818
  H     -213.722     111.128    -129.381
  H     -213.675     112.272    -128.056
  P     -211.882     114.385    -126.406
  C     -211.650     113.432    -124.038
  O     -211.604     114.597    -124.846
  O     -213.315     113.671    -126.411
  O     -211.909     115.636    -127.221
  H     -214.025     114.335    -126.354
  H     -211.757     113.730    -122.991
  H     -210.725     112.866    -124.156
  H     -212.503     112.802    -124.314
  H     -217.091     110.954    -131.215
  H     -216.930     112.439    -132.122
  H     -217.328     112.493    -130.422

 3  4  5  6  7  8  9  10  11  12  23  26  30  31 0
 6-311+G(2d,p)
 ****
 33  35  36  37  38 0
 6-311+G(2d,p)
 ****
 1  2  13  14  15  16  17  18  19  20  21  22  24  25 0
 3-21G
 ****
 27  28  29  32  34  39  40  41  42  43  44  45  46  47  48  49 0
 3-21G
 ****


