%nproc=1
%NoSave
%Mem=1900MB
#P OB98/GEN NMR

erre ene a

0 1
  C     -200.631      68.016      79.691
  O     -200.284      66.631      79.570
  P     -199.589      66.007      78.263
  C     -201.828      65.290      77.204
  O     -200.543      64.874      77.643
  C     -202.783      64.103      77.030
  O     -202.300      63.223      75.969
  C     -202.964      63.242      78.293
  O     -204.342      62.856      78.330
  C     -202.060      62.054      77.995
  O     -202.339      60.915      78.786
  C     -202.341      61.881      76.499
  N     -201.411      61.015      75.783
  C     -201.414      59.651      76.104
  O     -202.131      59.203      76.996
  N     -200.577      58.812      75.408
  C     -199.802      59.286      74.485
  N     -199.006      58.398      73.829
  C     -199.751      60.713      74.129
  C     -200.575      61.509      74.809
  O     -198.189      65.540      78.496
  O     -199.617      67.174      77.167
  H     -198.807      67.126      76.627
  H     -203.164      60.515      78.455
  H     -199.094      61.066      73.347
  H     -200.619      62.571      74.585
  H     -203.364      61.514      76.363
  H     -201.023      62.347      78.186
  H     -202.718      63.767      79.220
  H     -203.751      64.495      76.695
  H     -199.075      57.423      74.094
  H     -201.718      65.798      76.241
  H     -198.369      58.656      73.088
  H     -202.237      66.007      77.925
  P     -205.344      63.596      79.341
  C     -205.281      62.004      81.402
  O     -205.999      62.475      80.280
  O     -206.570      63.969      78.374
  O     -204.823      64.826      80.009
  H     -207.040      64.740      78.739
  H     -205.961      61.948      82.255
  H     -204.445      62.655      81.663
  H     -204.900      61.002      81.186
  H     -201.079      68.189      80.647
  H     -201.324      68.279      78.919
  H     -199.749      68.614      79.597

 3  4  5  6  7  8  9  10  11  12  13  24  27  28  29  30  32 0
 6-311+G(2d,p)
 ****
 34  35 0
 6-311+G(2d,p)
 ****
 1  2  14  15  16  17  18  19  20  21  22  23  25  26 0
 3-21G
 ****
 31  33  36  37  38  39  40  41  42  43  44  45  46 0
 3-21G
 ****


