%nproc=1
%NoSave
%Mem=1900MB
#P OB98/GEN NMR

erre ene a

0 1
  C      257.148     317.928     -77.506
  O      258.218     317.808     -76.604
  P      258.250     316.627     -75.517
  C      257.481     318.285     -73.705
  O      257.215     317.056     -74.359
  C      256.473     318.511     -72.581
  O      255.137     318.709     -73.110
  C      256.324     317.333     -71.631
  O      257.439     317.001     -70.827
  C      255.034     317.687     -70.912
  O      255.261     318.629     -69.866
  C      254.211     318.328     -72.058
  N      253.164     317.436     -72.549
  C      251.854     317.843     -72.308
  O      251.560     318.884     -71.723
  N      250.876     316.985     -72.740
  C      251.073     315.773     -73.335
  O      250.150     315.034     -73.655
  C      252.474     315.389     -73.546
  C      253.446     316.224     -73.152
  O      259.600     316.246     -75.025
  O      257.462     315.438     -76.249
  H      254.526     318.529     -69.222
  H      256.545     315.645     -76.503
  H      249.922     317.255     -72.565
  H      252.671     314.441     -74.028
  H      254.490     315.959     -73.296
  H      253.734     319.255     -71.708
  H      254.566     316.805     -70.457
  H      256.126     316.431     -72.232
  H      256.745     319.430     -72.052
  H      257.389     319.101     -74.429
  H      258.507     318.288     -73.322
  P      257.735     315.522     -70.290
  C      256.442     315.687     -68.045
  O      256.534     315.084     -69.323
  O      259.124     315.240     -69.827
  O      257.435     314.639     -71.606
  H      258.008     313.850     -71.592
  H      255.600     315.245     -67.515
  H      256.268     316.766     -68.146
  H      257.354     315.511     -67.474
  H      257.312     318.771     -78.144
  H      256.237     318.064     -76.962
  H      257.080     317.040     -78.099

 3  4  5  6  7  8  9  10  11  12  13  23  28  29  30  31  32 0
 6-311+G(2d,p)
 ****
 33  34 0
 6-311+G(2d,p)
 ****
 1  2  14  15  16  17  18  19  20  21  22  24  25  26  27 0
 3-21G
 ****
 35  36  37  38  39  40  41  42  43  44  45 0
 3-21G
 ****


