%nproc=1
%NoSave
%Mem=1900MB
#P OB98/GEN NMR

erre ene a

0 1
  C     -128.796     256.109     328.039
  O     -128.426     255.789     329.372
  P     -129.100     256.616     330.569
  C     -126.874     257.917     330.923
  O     -127.911     257.153     331.510
  C     -125.844     258.325     331.982
  O     -126.473     259.207     332.959
  C     -125.245     257.140     332.757
  O     -123.883     257.469     333.072
  C     -126.067     257.132     334.029
  O     -125.453     256.424     335.093
  C     -126.230     258.640     334.261
  N     -127.303     258.958     335.202
  C     -126.979     258.993     336.553
  O     -125.851     258.770     336.995
  N     -128.021     259.239     337.408
  C     -129.332     259.355     337.065
  O     -130.237     259.454     337.890
  C     -129.623     259.314     335.619
  C     -128.609     259.121     334.772
  O     -129.799     255.482     331.449
  O     -130.066     257.667     330.133
  H     -125.750     256.831     335.923
  H     -130.757     255.440     331.260
  H     -127.807     259.275     338.397
  H     -130.652     259.424     335.309
  H     -128.791     259.060     333.705
  H     -125.283     259.063     334.624
  H     -127.039     256.651     333.831
  H     -125.289     256.191     332.212
  H     -125.042     258.899     331.493
  H     -127.299     258.818     330.478
  H     -126.394     257.341     330.118
  P     -122.733     256.964     332.067
  C     -121.458     255.366     333.710
  O     -121.470     256.574     332.974
  O     -122.306     258.351     331.385
  O     -123.195     255.930     331.090
  H     -122.230     259.079     332.026
  H     -121.988     254.570     333.174
  H     -121.935     255.532     334.677
  H     -120.429     255.057     333.868
  H     -128.265     255.475     327.360
  H     -128.553     257.131     327.837
  H     -129.849     255.961     327.916

 3  4  5  6  7  8  9  10  11  12  13  23  28  29  30  31  32 0
 6-311+G(2d,p)
 ****
 33  34 0
 6-311+G(2d,p)
 ****
 1  2  14  15  16  17  18  19  20  21  22  24  25  26 0
 3-21G
 ****
 27  35  36  37  38  39  40  41  42  43  44  45 0
 3-21G
 ****


