%nproc=1
%NoSave
%Mem=1900MB
#P OB98/GEN NMR

erre ene a

0 1
  C      129.596     169.117    1132.681
  O      128.603     169.159    1133.683
  H      129.128     168.835    1131.733
  H      130.361     168.380    1132.930
  H      130.051     170.106    1132.564
  P      129.096     169.521    1135.168
  C      127.737     171.722    1135.062
  O      129.013     171.123    1135.237
  C      127.682     173.079    1135.766
  O      127.825     172.912    1137.184
  C      128.780     174.048    1135.340
  O      128.411     174.722    1134.141
  C      128.796     175.002    1136.526
  O      127.726     175.959    1136.397
  C      128.520     174.071    1137.714
  N      131.708     175.039    1141.619
  C      130.739     175.783    1141.052
  N      129.966     175.487    1139.979
  C      130.270     174.272    1139.500
  C      131.242     173.399    1139.971
  C      131.972     173.821    1141.096
  N      132.965     173.059    1141.673
  N      131.269     172.240    1139.222
  C      130.300     172.386    1138.349
  N      129.688     173.615    1138.447
  O      130.391     168.910    1135.591
  O      127.821     169.075    1136.030
  H      127.630     176.392    1137.266
  H      126.996     169.321    1135.576
  H      130.556     176.750    1141.510
  H      129.980     171.632    1137.634
  H      127.854     174.536    1138.454
  H      129.724     175.568    1136.598
  H      129.751     173.557    1135.261
  H      126.684     173.507    1135.587
  H      126.952     171.071    1135.465
  H      133.570     173.513    1142.339
  H      133.250     172.212    1141.195
  H      127.570     171.840    1133.989
  P      129.491     175.543    1133.292
  C      129.954     173.553    1131.734
  O      130.497     174.439    1132.712
  O      130.121     176.676    1134.026
  O      128.692     176.024    1131.994
  H      129.170     176.743    1131.545
  H      130.709     172.863    1131.419
  H      129.613     174.118    1130.891
  H      129.133     173.014    1132.158

 6  7  8  9  10  11  12  13  14  15  25  28  32  33  34  35 0
 6-311+G(2d,p)
 ****
 36  39  40 0
 6-311+G(2d,p)
 ****
 1  2  3  4  5  16  17  18  19  20  21  22  23  24 0
 3-21G
 ****
 26  27  29  30  31  37  38  41  42  43  44  45  46  47 0
 3-21G
 ****
 48 0
 3-21G
 ****


