%nproc=1
%NoSave
%Mem=1900MB
#P OB98/GEN NMR

erre ene a

0 1
  C     1945.199    -171.721    1085.355
  O     1944.485    -172.178    1084.215
  P     1944.640    -173.708    1083.789
  C     1942.395    -174.280    1085.110
  O     1943.784    -174.572    1084.883
  C     1941.561    -175.370    1084.489
  O     1941.982    -176.683    1084.952
  C     1940.044    -175.288    1084.844
  O     1939.378    -174.291    1084.086
  C     1939.588    -176.709    1084.548
  O     1939.390    -176.891    1083.117
  C     1940.818    -177.547    1084.977
  N     1940.642    -178.169    1086.306
  C     1939.498    -178.946    1086.497
  O     1938.652    -179.066    1085.558
  N     1939.328    -179.500    1087.730
  C     1940.172    -179.309    1088.798
  O     1939.940    -179.811    1089.876
  C     1941.319    -178.470    1088.555
  C     1941.565    -177.928    1087.363
  O     1946.174    -173.972    1084.203
  O     1944.293    -173.965    1082.348
  H     1946.473    -173.389    1084.927
  H     1939.203    -177.837    1082.965
  H     1938.523    -180.046    1087.863
  H     1942.057    -178.322    1089.387
  H     1942.396    -177.339    1087.151
  H     1941.062    -178.365    1084.253
  H     1938.694    -176.990    1085.059
  H     1939.950    -175.108    1085.936
  H     1941.673    -175.363    1083.371
  H     1942.132    -173.310    1084.647
  H     1942.222    -174.222    1086.186
  P     1937.938    -173.833    1084.662
  C     1938.630    -171.333    1085.088
  O     1938.221    -172.540    1085.647
  O     1937.569    -175.055    1085.643
  O     1936.918    -173.551    1083.549
  H     1938.328    -175.339    1086.161
  H     1938.403    -170.576    1085.864
  H     1938.071    -171.084    1084.177
  H     1939.693    -171.336    1084.892
  H     1944.994    -170.683    1085.511
  H     1946.248    -171.858    1085.197
  H     1944.892    -172.279    1086.215

 3  4  5  6  7  8  9  10  11  12  13  24  28  29  30  31  32 0
 6-311+G(2d,p)
 ****
 33  34 0
 6-311+G(2d,p)
 ****
 1  2  14  15  16  17  18  19  20  21  22  23  25  26  27 0
 3-21G
 ****
 35  36  37  38  39  40  41  42  43  44  45 0
 3-21G
 ****


