%nproc=1
%NoSave
%Mem=1900MB
#P OB98/GEN NMR

erre ene a

0 1
  C     -806.978     -44.798    -114.815
  O     -807.930     -45.843    -114.833
  H     -806.772     -44.533    -113.776
  H     -807.371     -43.917    -115.335
  H     -806.049     -45.123    -115.288
  P     -808.359     -46.400    -116.279
  C     -808.825     -48.833    -115.494
  O     -809.360     -47.625    -116.013
  C     -809.952     -49.676    -114.889
  O     -810.491     -49.012    -113.722
  C     -811.133     -49.878    -115.823
  O     -810.897     -50.876    -116.797
  C     -812.229     -50.254    -114.833
  O     -812.174     -51.643    -114.500
  C     -811.874     -49.398    -113.611
  N     -815.151     -46.908    -110.589
  C     -814.399     -48.017    -110.385
  N     -813.540     -48.610    -111.237
  C     -813.470     -47.923    -112.391
  C     -814.173     -46.780    -112.745
  C     -815.052     -46.266    -111.777
  N     -815.841     -45.155    -111.980
  N     -813.862     -46.395    -114.034
  C     -812.989     -47.285    -114.459
  N     -812.717     -48.223    -113.497
  O     -807.028     -47.106    -116.808
  O     -808.858     -45.363    -117.230
  H     -812.631     -52.122    -115.224
  H     -806.563     -46.513    -117.426
  H     -814.511     -48.482    -109.418
  H     -812.535     -47.293    -115.439
  H     -811.979     -49.960    -112.668
  H     -813.216     -50.044    -115.239
  H     -811.410     -48.929    -116.301
  H     -809.531     -50.640    -114.569
  H     -808.089     -48.601    -114.716
  H     -808.329     -49.378    -116.302
  H     -816.487     -44.880    -111.275
  H     -815.849     -44.732    -112.909
  P     -811.521     -50.654    -118.257
  C     -809.952     -52.353    -119.479
  O     -811.277     -52.001    -119.088
  O     -810.530     -49.601    -118.948
  O     -812.933     -50.174    -118.263
  H     -811.040     -49.003    -119.525
  H     -809.973     -53.275    -120.022
  H     -809.341     -52.466    -118.608
  H     -809.547     -51.582    -120.101

 6  7  8  9  10  11  12  13  14  15  25  28  32  33  34  35 0
 6-311+G(2d,p)
 ****
 36  37  40 0
 6-311+G(2d,p)
 ****
 1  2  3  4  5  16  17  18  19  20  21  22  23  24 0
 3-21G
 ****
 26  27  29  30  31  38  39 41  42  43  44  45  46  47  48 0
 3-21G
 ****


