%nproc=1
%NoSave
%Mem=1900MB
#P OB98/GEN NMR

erre ene a

0 1
  C     -294.592     506.452    -176.134
  O     -295.949     506.084    -176.269
  P     -296.873     506.694    -177.432
  C     -297.561     508.472    -175.706
  O     -298.008     507.543    -176.683
  C     -298.733     509.217    -175.066
  O     -299.296     510.154    -176.027
  C     -299.872     508.318    -174.573
  O     -300.413     508.951    -173.408
  C     -300.860     508.388    -175.721
  O     -302.175     507.998    -175.337
  C     -300.704     509.851    -176.151
  N     -301.199     510.084    -177.502
  C     -302.486     510.617    -177.617
  O     -303.173     510.800    -176.610
  N     -302.984     510.883    -178.865
  C     -302.298     510.549    -179.914
  N     -302.836     510.836    -181.129
  C     -300.992     509.865    -179.840
  C     -300.502     509.680    -178.616
  O     -297.377     505.704    -178.426
  O     -295.958     507.837    -178.079
  H     -302.439     508.523    -174.550
  H     -295.273     507.435    -178.672
  H     -300.482     509.551    -180.737
  H     -299.549     509.189    -178.462
  H     -301.243     510.519    -175.463
  H     -300.539     507.719    -176.526
  H     -299.560     507.298    -174.350
  H     -298.338     509.815    -174.229
  H     -303.732     511.318    -181.132
  H     -296.910     509.196    -176.202
  H     -302.352     510.693    -181.999
  H     -296.966     507.956    -174.945
  P     -299.999     508.472    -171.936
  C     -302.218     507.405    -171.237
  O     -301.328     508.492    -171.043
  O     -298.835     509.201    -171.338
  O     -299.687     506.910    -172.097
  H     -299.192     506.594    -171.317
  H     -302.926     507.369    -170.402
  H     -301.675     506.454    -171.279
  H     -302.772     507.548    -172.169
  H     -294.163     505.934    -175.302
  H     -294.523     507.507    -175.971
  H     -294.062     506.194    -177.027

 3  4  5  6  7  8  9  10  11  12  13  23  27  28  29  30  32 0
 6-311+G(2d,p)
 ****
 34  35 0
 6-311+G(2d,p)
 ****
 1  2  14  15  16  17  18  19  20  21  22  24  25  26 0
 3-21G
 ****
 31  33  36  37  38  39  40  41  42  43  44  45  46 0
 3-21G
 ****


