%nproc=1
%NoSave
%Mem=1900MB
#P OB98/GEN NMR

erre ene a

0 1
  C      -27.394     -15.036      -7.233
  O      -27.808     -13.717      -7.524
  H      -26.526     -15.278      -7.852
  H      -28.197     -15.742      -7.462
  H      -27.112     -15.123      -6.180
  P      -29.051     -13.150      -6.685
  C      -31.489     -13.949      -6.261
  O      -30.290     -14.118      -7.007
  C      -32.340     -15.211      -6.359
  O      -31.616     -16.325      -5.791
  C      -33.654     -15.142      -5.590
  O      -34.645     -14.419      -6.297
  C      -33.981     -16.620      -5.428
  O      -34.626     -17.148      -6.594
  C      -32.592     -17.253      -5.268
  N      -32.651     -20.948      -1.759
  C      -32.949     -20.948      -3.076
  N      -32.889     -19.920      -3.950
  C      -32.460     -18.805      -3.335
  C      -32.126     -18.651      -2.001
  C      -32.231     -19.793      -1.191
  N      -31.962     -19.784       0.156
  N      -31.775     -17.342      -1.738
  C      -31.885     -16.720      -2.894
  N      -32.291     -17.565      -3.886
  O      -29.417     -11.796      -7.459
  O      -28.787     -12.913      -5.236
  H      -35.512     -16.738      -6.632
  H      -28.975     -11.042      -7.025
  H      -33.284     -21.899      -3.482
  H      -31.693     -15.666      -3.058
  H      -32.493     -18.183      -5.840
  H      -34.649     -16.789      -4.583
  H      -33.489     -14.705      -4.597
  H      -32.521     -15.428      -7.419
  H      -32.052     -13.102      -6.670
  H      -31.232     -13.737      -5.219
  H      -32.082     -20.636       0.680
  H      -31.752     -18.905       0.609
  P      -35.769     -13.644      -5.460
  C      -37.926     -14.300      -4.165
  O      -36.881     -14.717      -5.029
  O      -36.507     -12.758      -6.570
  O      -35.247     -12.811      -4.338
  H      -36.187     -11.837      -6.538
  H      -38.581     -15.124      -3.973
  H      -38.476     -13.508      -4.628
  H      -37.509     -13.954      -3.242

 6  7  8  9  10  11  12  13  14  15  25  28  32  33  34  35 0
 6-311+G(2d,p)
 ****
 36  37  40 0
 6-311+G(2d,p)
 ****
 1  2  3  4  5  16  17  18  19  20  21  22  23  24 0
 3-21G
 ****
 26  27  29  30  31  38  39 41  42  43  44  45  46  47  48 0
 3-21G
 ****


