%nproc=1
%NoSave
%Mem=1900MB
#P OB98/GEN NMR

erre ene a

0 1
  C     -866.585    -464.207       8.701
  O     -866.123    -464.539       7.406
  P     -866.812    -465.785       6.664
  C     -864.473    -466.624       5.804
  O     -865.674    -466.900       6.511
  C     -863.272    -467.234       6.545
  O     -863.377    -466.962       7.955
  C     -863.162    -468.755       6.431
  O     -862.638    -469.145       5.169
  C     -862.264    -469.064       7.623
  O     -860.877    -468.812       7.284
  C     -862.745    -468.041       8.671
  N     -863.650    -468.624       9.664
  C     -863.057    -469.072      10.843
  O     -861.852    -468.993      11.063
  N     -863.914    -469.645      11.760
  C     -865.246    -469.850      11.587
  O     -865.961    -470.404      12.413
  C     -865.807    -469.395      10.299
  C     -865.004    -468.801       9.417
  O     -867.003    -465.190       5.192
  O     -868.075    -466.233       7.331
  H     -866.334    -464.507       4.990
  H     -860.810    -467.863       7.088
  H     -863.514    -469.953      12.626
  H     -866.867    -469.545      10.123
  H     -865.394    -468.464       8.468
  H     -861.889    -467.610       9.191
  H     -862.332    -470.109       7.938
  H     -864.149    -469.201       6.589
  H     -862.368    -466.739       6.171
  H     -864.343    -465.539       5.725
  H     -864.552    -467.039       4.791
  P     -863.621    -470.023       4.245
  C     -861.786    -471.875       4.173
  O     -863.138    -471.550       4.382
  O     -863.121    -469.585       2.765
  O     -865.075    -469.784       4.493
  H     -862.162    -469.526       2.708
  H     -861.591    -472.840       4.645
  H     -861.108    -471.122       4.601
  H     -861.583    -471.966       3.110
  H     -866.039    -463.363       9.069
  H     -866.438    -465.040       9.356
  H     -867.627    -463.967       8.657

 3  4  5  6  7  8  9  10  11  12  13  24  28  29  30  31  32 0
 6-311+G(2d,p)
 ****
 33  34 0
 6-311+G(2d,p)
 ****
 1  2  14  15  16  17  18  19  20  21  22  23  25  26  27 0
 3-21G
 ****
 35  36  37  38  39  40  41  42  43  44  45 0
 3-21G
 ****


