%nproc=1
%NoSave
%Mem=1900MB
#P OB98/GEN NMR

erre ene a

0 1
  C      227.671    -292.264     -69.485
  O      227.558    -291.690     -70.776
  P      227.880    -292.625     -72.040
  C      229.915    -291.101     -72.716
  O      228.681    -291.701     -73.077
  C      230.631    -290.579     -73.966
  O      230.996    -291.682     -74.821
  C      229.793    -289.649     -74.835
  O      229.706    -288.345     -74.282
  C      230.541    -289.731     -76.160
  O      231.695    -288.873     -76.135
  C      230.981    -291.209     -76.186
  N      230.128    -292.048     -77.026
  C      230.744    -292.664     -78.108
  O      231.940    -292.530     -78.369
  N      229.934    -293.432     -78.903
  C      228.585    -293.588     -78.759
  O      227.896    -294.250     -79.526
  C      227.982    -292.885     -77.616
  C      228.766    -292.159     -76.817
  O      226.416    -292.775     -72.673
  O      228.541    -293.910     -71.670
  H      225.851    -292.009     -72.461
  H      232.188    -289.092     -75.319
  H      230.362    -293.910     -79.681
  H      226.910    -292.977     -77.478
  H      228.336    -291.629     -75.976
  H      232.011    -291.293     -76.550
  H      229.925    -289.427     -77.011
  H      228.786    -290.063     -74.958
  H      231.555    -290.075     -73.645
  H      230.542    -291.845     -72.221
  H      229.722    -290.281     -72.014
  P      228.239    -287.844     -73.845
  C      228.136    -285.529     -75.052
  O      228.293    -286.244     -73.846
  O      228.227    -288.240     -72.294
  O      227.136    -288.452     -74.648
  H      229.066    -288.038     -71.846
  H      227.849    -284.498     -74.813
  H      227.362    -285.973     -75.683
  H      229.086    -285.510     -75.594
  H      227.428    -291.530     -68.746
  H      228.674    -292.606     -69.333
  H      226.996    -293.090     -69.402

 3  4  5  6  7  8  9  10  11  12  13  24  28  29  30  31  32 0
 6-311+G(2d,p)
 ****
 33  34 0
 6-311+G(2d,p)
 ****
 1  2  14  15  16  17  18  19  20  21  22  23  25  26  27 0
 3-21G
 ****
 35  36  37  38  39  40  41  42  43  44  45 0
 3-21G
 ****


