%nproc=1
%NoSave
%Mem=1900MB
#P OB98/GEN NMR

erre ene a

0 1
  C     1885.609     -68.568    1373.082
  O     1884.658     -67.692    1373.724
  P     1884.016     -66.492    1372.854
  C     1881.813     -67.731    1372.308
  O     1882.994     -67.113    1371.774
  C     1880.964     -68.358    1371.186
  O     1880.714     -67.382    1370.111
  C     1881.667     -69.589    1370.531
  O     1880.691     -70.532    1370.083
  C     1882.286     -68.935    1369.266
  O     1882.564     -69.952    1368.287
  C     1881.191     -67.942    1368.885
  N     1883.015     -66.785    1364.221
  C     1882.543     -67.921    1364.737
  N     1882.046     -68.144    1365.980
  C     1882.055     -67.041    1366.707
  C     1882.505     -65.780    1366.317
  C     1883.005     -65.672    1365.006
  N     1883.511     -64.487    1364.491
  N     1882.394     -64.861    1367.348
  C     1881.916     -65.574    1368.368
  N     1881.687     -66.897    1368.001
  O     1884.980     -65.526    1372.271
  O     1883.011     -65.783    1373.885
  H     1882.826     -69.524    1367.471
  H     1883.114     -64.814    1373.804
  H     1882.555     -68.793    1364.082
  H     1881.743     -65.168    1369.354
  H     1880.327     -68.428    1368.398
  H     1883.199     -68.443    1369.545
  H     1882.402     -70.064    1371.156
  H     1879.989     -68.642    1371.582
  H     1881.211     -66.993    1372.825
  H     1883.935     -64.521    1363.606
  H     1883.675     -63.690    1365.088
  H     1882.107     -68.489    1373.064
  P     1880.732     -71.950    1370.847
  C     1878.159     -71.875    1371.459
  O     1879.549     -71.929    1371.902
  O     1882.089     -72.310    1371.405
  O     1880.228     -72.954    1369.697
  H     1879.415     -72.698    1369.259
  H     1877.523     -71.991    1372.327
  H     1877.999     -72.677    1370.749
  H     1877.990     -70.893    1370.983
  H     1885.942     -69.306    1373.781
  H     1886.447     -67.996    1372.741
  H     1885.143     -69.051    1372.248

 3  4  5  6  7  8  9  10  11  12  22  25  29  30  31  32 0
 6-311+G(2d,p)
 ****
 33  36  37 0
 6-311+G(2d,p)
 ****
 1  2  13  14  15  16  17  18  19  20  21  23  24  26 0
 3-21G
 ****
 27  28  34  35  38  39  40  41  42  43  44  45  46  47  48 0
 3-21G
 ****


