%nproc=1
%NoSave
%Mem=1900MB
#P OB98/GEN NMR

erre ene a

0 1
  C      -64.806      21.772    -239.146
  O      -65.979      21.777    -238.359
  H      -64.460      20.741    -239.252
  H      -64.024      22.354    -238.650
  H      -65.005      22.183    -240.138
  P      -66.708      23.192    -238.153
  C      -65.365      23.592    -235.969
  O      -65.715      24.085    -237.255
  C      -64.398      24.547    -235.270
  O      -64.828      25.919    -235.524
  C      -64.319      24.365    -233.746
  O      -62.968      24.630    -233.338
  C      -65.202      25.488    -233.225
  O      -64.907      25.830    -231.870
  C      -64.877      26.579    -234.244
  N      -65.860      31.155    -232.390
  C      -64.741      30.358    -232.260
  N      -63.727      30.852    -231.519
  N      -64.627      29.175    -232.806
  C      -65.708      28.819    -233.546
  C      -66.875      29.515    -233.750
  C      -66.999      30.812    -233.117
  O      -67.973      31.556    -233.182
  N      -67.744      28.802    -234.540
  C      -67.101      27.681    -234.814
  N      -65.861      27.646    -234.234
  O      -67.902      22.831    -237.151
  O      -67.202      23.846    -239.400
  H      -65.473      26.594    -231.627
  H      -68.716      22.634    -237.651
  H      -65.901      32.053    -231.938
  H      -67.483      26.868    -235.416
  H      -63.902      27.049    -234.058
  H      -66.257      25.197    -233.281
  H      -63.721      31.771    -231.109
  H      -64.625      23.376    -233.395
  H      -62.878      30.296    -231.447
  H      -63.406      24.443    -235.731
  H      -64.883      22.614    -236.082
  H      -66.276      23.476    -235.368
  P      -61.948      23.396    -233.261
  C      -62.051      22.825    -230.727
  O      -62.403      22.450    -232.050
  O      -60.611      24.076    -232.700
  O      -61.715      22.713    -234.567
  H      -59.834      23.574    -233.008
  H      -62.425      22.096    -230.038
  H      -62.477      23.780    -230.502
  H      -60.986      22.881    -230.644

 6  7  8  9  10  11  12  13  14  15  26  29  33  34 0
 6-311+G(2d,p)
 ****
 36  38  39  40  41 0
 6-311+G(2d,p)
 ****
 1  2  3  4  5  16  17  18  19  20  21  22  23  24  25 0
 3-21G
 ****
 27  28  30  31  32  35  37  42  43  44  45  46  47 0
 3-21G
 ****
 48  49 0
 3-21G
 ****


