%nproc=1
%NoSave
%Mem=1900MB
#P OB98/GEN NMR

erre ene a

0 1
  C      146.418     -96.418      19.981
  O      145.251     -97.187      20.198
  H      146.269     -95.424      20.411
  H      146.609     -96.313      18.909
  H      147.276     -96.890      20.467
  P      145.234     -98.655      19.542
  C      144.333     -97.494      17.384
  O      145.299     -98.360      17.964
  C      144.618     -97.327      15.896
  O      145.902     -96.700      15.690
  C      144.677     -98.640      15.122
  O      143.394     -99.165      14.825
  C      145.407     -98.186      13.871
  O      144.499     -97.458      13.021
  C      146.478     -97.248      14.473
  N      147.742     -97.929      14.762
  C      148.894     -97.390      14.178
  O      148.823     -96.397      13.452
  N      150.103     -98.010      14.402
  C      150.157     -99.067      15.151
  N      151.377     -99.647      15.327
  C      148.971     -99.658      15.799
  C      147.812     -99.047      15.564
  O      143.722     -99.140      19.744
  O      146.262     -99.612      20.048
  H      144.952     -97.333      12.167
  H      143.576     -99.989      19.260
  H      149.067    -100.547      16.407
  H      146.897     -99.427      16.005
  H      146.681     -96.404      13.801
  H      145.804     -99.015      13.281
  H      145.295     -99.385      15.637
  H      143.855     -96.653      15.478
  H      152.160     -99.257      14.821
  H      144.389     -96.525      17.892
  H      151.488    -100.565      15.740
  H      143.328     -97.909      17.518
  P      143.209    -100.760      14.885
  C      144.097    -100.987      12.454
  O      144.222    -101.391      13.810
  O      141.776    -100.983      14.211
  O      143.283    -101.353      16.258
  H      141.277    -101.688      14.665
  H      144.835    -101.488      11.863
  H      144.241     -99.929      12.382
  H      143.121    -101.239      12.095

 6  7  8  9  10  11  12  13  14  15  16  26  30  31  32  33  35 0
 6-311+G(2d,p)
 ****
 37  38 0
 6-311+G(2d,p)
 ****
 1  2  3  4  5  17  18  19  20  21  22  23  24  25 0
 3-21G
 ****
 27  28  29  34  36  39  40  41  42  43  44  45  46 0
 3-21G
 ****


