%nproc=1
%NoSave
%Mem=1900MB
#P OB98/GEN NMR

erre ene a

0 1
  C     -270.462      77.858    -378.551
  O     -271.067      77.980    -377.279
  P     -271.069      76.771    -376.225
  C     -268.621      77.272    -375.609
  O     -269.535      76.303    -376.102
  C     -267.415      76.609    -374.939
  O     -266.459      77.625    -374.541
  C     -267.755      75.779    -373.687
  O     -266.831      74.685    -373.671
  C     -267.453      76.750    -372.563
  O     -267.267      76.097    -371.313
  C     -266.217      77.470    -373.124
  N     -265.977      78.745    -372.459
  C     -265.560      78.690    -371.128
  O     -265.484      77.606    -370.542
  N     -265.292      79.863    -370.468
  C     -265.523      80.997    -371.061
  N     -265.234      82.127    -370.361
  C     -266.085      81.099    -372.420
  C     -266.272      79.948    -373.061
  O     -272.040      75.675    -376.518
  O     -271.324      77.491    -374.822
  H     -266.595      75.388    -371.433
  H     -272.279      77.729    -374.726
  H     -266.308      82.064    -372.848
  H     -266.677      79.923    -374.059
  H     -265.323      76.844    -373.012
  H     -268.286      77.454    -372.453
  H     -268.783      75.419    -373.671
  H     -266.922      75.975    -375.684
  H     -264.835      82.009    -369.435
  H     -269.141      77.880    -374.866
  H     -265.298      83.054    -370.757
  H     -268.301      77.929    -376.423
  P     -267.192      73.302    -372.943
  C     -267.871      72.305    -375.199
  O     -268.269      72.556    -373.863
  O     -267.575      73.429    -371.501
  O     -265.876      72.405    -373.117
  H     -265.911      71.654    -372.494
  H     -268.548      71.563    -375.635
  H     -266.850      71.924    -375.241
  H     -267.938      73.229    -375.782
  H     -270.575      78.776    -379.089
  H     -270.932      77.065    -379.095
  H     -269.421      77.641    -378.432

 3  4  5  6  7  8  9  10  11  12  13  23  27  28  29  30  32 0
 6-311+G(2d,p)
 ****
 34  35 0
 6-311+G(2d,p)
 ****
 1  2  14  15  16  17  18  19  20  21  22  24  25  26 0
 3-21G
 ****
 31  33  36  37  38  39  40  41  42  43  44  45  46 0
 3-21G
 ****


