%nproc=1
%NoSave
%Mem=1900MB
#P OB98/GEN NMR

erre ene a

0 1
  C      -10.863      70.920      75.042
  O      -10.544      69.712      75.697
  H      -10.873      70.740      73.964
  H      -10.101      71.671      75.267
  H      -11.845      71.292      75.344
  P      -10.899      69.561      77.248
  C       -8.765      69.677      78.696
  O       -9.826      70.407      78.093
  C       -7.568      69.539      77.755
  O       -7.517      70.673      76.864
  C       -6.233      69.507      78.505
  O       -5.834      68.218      78.940
  C       -5.268      70.053      77.455
  O       -4.754      69.001      76.621
  C       -6.141      71.010      76.636
  N       -3.610      75.318      75.550
  C       -3.402      74.044      75.058
  N       -2.368      73.901      74.200
  N       -4.133      73.013      75.395
  C       -5.064      73.292      76.336
  C       -5.349      74.510      76.912
  C       -4.584      75.659      76.478
  O       -4.739      76.811      76.871
  N       -6.336      74.401      77.862
  C       -6.582      73.106      77.918
  N       -5.894      72.404      76.956
  O      -10.482      68.047      77.580
  O      -12.335      69.803      77.608
  H       -4.447      68.279      77.202
  H      -11.064      67.694      78.277
  H       -3.034      76.077      75.232
  H       -7.279      72.632      78.600
  H       -5.960      70.893      75.560
  H       -4.406      70.529      77.929
  H       -1.722      74.640      73.974
  H       -6.246      70.202      79.350
  H       -2.064      72.954      73.964
  H       -7.699      68.646      77.131
  H       -9.165      68.692      78.939
  H       -8.463      70.150      79.635
  P       -5.072      68.020      80.332
  C       -2.805      66.703      80.474
  O       -3.516      67.839      80.032
  O       -5.533      66.558      80.790
  O       -5.358      69.051      81.373
  H       -6.255      66.615      81.443
  H       -1.782      66.781      80.169
  H       -3.238      65.823      80.047
  H       -2.855      66.644      81.541

 6  7  8  9  10  11  12  13  14  15  26  29  33  34 0
 6-311+G(2d,p)
 ****
 36  38  39  40  41 0
 6-311+G(2d,p)
 ****
 1  2  3  4  5  16  17  18  19  20  21  22  23  24  25 0
 3-21G
 ****
 27  28  30  31  32  35  37  42  43  44  45  46  47 0
 3-21G
 ****
 48  49 0
 3-21G
 ****


