%nproc=1
%NoSave
%Mem=1900MB
#P OB98/GEN NMR

erre ene a

0 1
  C      308.565     609.781       2.210
  O      307.509     610.565       1.665
  P      307.052     610.265       0.166
  C      307.787     612.561      -0.815
  O      306.711     611.687      -0.506
  C      307.386     613.558      -1.910
  O      307.241     612.828      -3.166
  C      306.074     614.305      -1.650
  O      306.235     615.612      -2.193
  C      305.084     613.485      -2.465
  O      303.868     614.157      -2.724
  C      305.942     613.153      -3.679
  N      304.626     611.555      -8.371
  C      305.211     612.696      -7.932
  N      305.535     613.051      -6.669
  C      305.199     612.067      -5.814
  C      304.586     610.872      -6.095
  C      304.295     610.612      -7.455
  N      303.697     609.459      -7.890
  N      304.392     610.124      -4.944
  C      304.876     610.882      -3.985
  N      305.399     612.058      -4.452
  O      305.615     609.589       0.336
  O      307.992     609.398      -0.627
  H      303.446     614.449      -1.902
  H      305.486     608.870      -0.301
  H      305.434     613.433      -8.713
  H      304.857     610.626      -2.938
  H      306.044     614.006      -4.362
  H      304.834     612.577      -1.907
  H      305.829     614.385      -0.585
  H      308.218     614.270      -2.047
  H      308.641     611.972      -1.173
  H      303.341     609.454      -8.837
  H      303.273     608.854      -7.179
  H      308.103     613.087       0.091
  P      305.609     616.873      -1.423
  C      303.946     617.710      -3.183
  O      305.215     617.893      -2.594
  O      306.926     617.555      -0.824
  O      304.566     616.541      -0.409
  H      307.606     617.695      -1.514
  H      303.752     618.523      -3.895
  H      303.153     617.722      -2.416
  H      303.914     616.764      -3.736
  H      308.760     610.094       3.215
  H      309.447     609.911       1.619
  H      308.282     608.749       2.206

 3  4  5  6  7  8  9  10  11  12  22  25  29  30  31  32 0
 6-311+G(2d,p)
 ****
 33  36  37 0
 6-311+G(2d,p)
 ****
 1  2  13  14  15  16  17  18  19  20  21  23  24  26 0
 3-21G
 ****
 27  28  34  35  38  39  40  41  42  43  44  45  46  47  48 0
 3-21G
 ****


