%nproc=1
%NoSave
%Mem=1900MB
#P OB98/GEN NMR

erre ene a

0 1
  C      178.792    -149.778     -78.327
  O      178.195    -148.494     -78.262
  P      179.058    -147.154     -78.472
  C      179.687    -146.884     -75.979
  O      180.143    -147.158     -77.292
  C      180.870    -146.564     -75.063
  O      180.369    -145.907     -73.869
  C      181.671    -147.792     -74.613
  O      183.044    -147.393     -74.515
  C      181.102    -148.084     -73.239
  O      181.986    -148.844     -72.428
  C      180.830    -146.664     -72.731
  N      179.852    -146.634     -71.648
  C      180.280    -147.009     -70.373
  O      181.439    -147.373     -70.179
  N      179.382    -146.960     -69.337
  C      178.144    -146.652     -69.568
  N      177.307    -146.560     -68.500
  C      177.625    -146.356     -70.916
  C      178.528    -146.343     -71.892
  O      178.255    -145.904     -78.579
  O      179.959    -147.463     -79.751
  H      182.757    -148.288     -72.210
  H      179.497    -147.275     -80.606
  H      176.578    -146.130     -71.063
  H      178.244    -146.113     -72.909
  H      181.762    -146.196     -72.400
  H      180.169    -148.653     -73.344
  H      181.588    -148.630     -75.311
  H      181.523    -145.848     -75.578
  H      177.736    -146.598     -67.581
  H      179.177    -147.770     -75.596
  H      176.447    -146.024     -68.553
  H      178.971    -146.055     -76.001
  P      184.174    -148.418     -75.016
  C      184.961    -149.061     -72.628
  O      184.414    -149.496     -73.853
  O      185.500    -147.516     -74.912
  O      184.025    -148.943     -76.405
  H      186.163    -147.855     -75.540
  H      185.047    -149.923     -71.959
  H      184.310    -148.321     -72.157
  H      185.957    -148.639     -72.782
  H      178.046    -150.527     -78.160
  H      179.551    -149.857     -77.577
  H      179.230    -149.919     -79.293

 3  4  5  6  7  8  9  10  11  12  13  23  27  28  29  30  32 0
 6-311+G(2d,p)
 ****
 34  35 0
 6-311+G(2d,p)
 ****
 1  2  14  15  16  17  18  19  20  21  22  24  25  26 0
 3-21G
 ****
 31  33  36  37  38  39  40  41  42  43  44  45  46 0
 3-21G
 ****


