%nproc=1
%NoSave
%Mem=1900MB
#P OB98/GEN NMR

erre ene a

0 1
  C        6.092    -119.301    -203.298
  O        4.691    -119.463    -203.237
  H        6.376    -118.462    -202.659
  H        6.394    -119.074    -204.324
  H        6.611    -120.197    -202.948
  P        4.037    -120.793    -203.846
  C        2.439    -119.757    -205.586
  O        2.557    -120.394    -204.322
  C        1.162    -118.917    -205.658
  O        1.350    -117.707    -204.867
  C        0.781    -118.479    -207.081
  O       -0.649    -118.383    -207.131
  C        1.406    -117.100    -207.157
  O        0.860    -116.343    -208.213
  C        1.132    -116.584    -205.742
  N        1.973    -115.440    -205.391
  C        1.334    -114.214    -205.267
  O        0.129    -114.056    -205.468
  N        2.131    -113.150    -204.946
  C        3.488    -113.185    -204.805
  O        4.157    -112.193    -204.548
  C        4.116    -114.503    -204.990
  C        3.343    -115.556    -205.267
  O        4.108    -122.005    -202.980
  O        4.802    -121.007    -205.236
  H       -0.098    -116.190    -208.062
  H        4.850    -121.959    -205.449
  H        1.681    -112.254    -204.843
  H        5.192    -114.563    -204.892
  H        3.776    -116.539    -205.410
  H        0.082    -116.275    -205.638
  H        2.485    -117.175    -207.333
  H        1.146    -119.160    -207.852
  H        0.346    -119.479    -205.186
  H        2.415    -120.537    -206.355
  H        3.313    -119.119    -205.756
  P       -1.500    -118.946    -208.368
  C       -2.928    -116.882    -208.950
  O       -2.919    -118.199    -208.402
  O       -1.592    -120.437    -208.420
  O       -0.751    -118.381    -209.667
  H       -0.895    -118.986    -210.419
  H       -3.923    -116.490    -208.919
  H       -2.589    -116.915    -209.964
  H       -2.279    -116.253    -208.378

 6  7  8  9  10  11  12  13  14  15  16  26  31  32  33  34  35 0
 6-311+G(2d,p)
 ****
 36  37 0
 6-311+G(2d,p)
 ****
 1  2  3  4  5  17  18  19  20  21  22  23  24  25 0
 3-21G
 ****
 27  28  29  30  38  39  40  41  42  43  44  45 0
 3-21G
 ****


