%nproc=1
%NoSave
%Mem=1900MB
#P OB98/GEN NMR

erre ene a

0 1
  C       19.581      81.630     149.888
  O       19.812      80.837     151.031
  H       18.503      81.812     149.806
  H       19.909      81.108     148.987
  H       20.091      82.594     149.974
  P       21.314      80.381     151.380
  C       21.915      82.376     152.883
  O       22.129      81.749     151.621
  C       22.940      81.908     153.917
  O       24.273      82.323     153.499
  C       22.699      82.462     155.328
  O       22.805      81.404     156.288
  C       23.845      83.444     155.526
  O       24.156      83.664     156.899
  C       24.947      82.775     154.691
  N       26.043      83.689     154.399
  C       27.166      83.590     155.229
  O       27.203      82.755     156.137
  N       28.208      84.463     155.040
  C       28.107      85.394     154.141
  N       29.163      86.250     154.026
  C       26.925      85.555     153.265
  C       25.942      84.677     153.446
  O       21.925      79.446     150.388
  O       21.221      79.760     152.854
  H       23.397      84.123     157.326
  H       21.989      79.156     152.992
  H       26.894      86.351     152.536
  H       25.037      84.716     152.855
  H       25.351      81.897     155.213
  H       23.573      84.411     155.084
  H       21.730      82.948     155.439
  H       22.951      80.807     153.919
  H       29.946      86.112     154.651
  H       20.897      82.142     153.220
  H       29.187      87.027     153.377
  H       22.012      83.457     152.749
  P       21.530      81.191     157.249
  C       20.278      79.548     155.676
  O       20.270      80.810     156.325
  O       21.200      82.680     157.761
  O       21.798      80.269     158.390
  H       21.423      82.760     158.707
  H       19.382      79.437     155.102
  H       20.331      78.770     156.409
  H       21.127      79.486     155.028

 6  7  8  9  10  11  12  13  14  15  16  26  30  31  32  33  35 0
 6-311+G(2d,p)
 ****
 37  38 0
 6-311+G(2d,p)
 ****
 1  2  3  4  5  17  18  19  20  21  22  23  24  25 0
 3-21G
 ****
 27  28  29  34  36  39  40  41  42  43  44  45  46 0
 3-21G
 ****


