%nproc=1
%NoSave
%Mem=1900MB
#P OB98/GEN NMR

erre ene a

0 1
  C      168.448     -87.920     320.034
  O      168.674     -88.775     321.145
  H      167.498     -88.197     319.573
  H      169.248     -88.045     319.299
  H      168.399     -86.881     320.360
  P      170.026     -88.517     321.971
  C      171.073     -89.866     320.004
  O      171.234     -88.833     320.961
  C      172.384     -90.083     319.219
  O      173.509     -89.924     320.150
  C      172.517     -91.487     318.595
  O      173.329     -91.364     317.419
  C      173.280     -92.235     319.682
  O      173.791     -93.453     319.183
  C      174.271     -91.149     320.080
  N      178.360     -93.225     322.370
  C      178.031     -93.081     321.063
  N      176.933     -92.501     320.527
  C      176.128     -92.029     321.500
  C      176.330     -92.094     322.871
  C      177.510     -92.740     323.308
  N      177.837     -92.887     324.636
  N      175.269     -91.504     323.548
  C      174.451     -91.091     322.603
  N      174.923     -91.388     321.352
  O      170.066     -89.739     323.007
  O      170.113     -87.200     322.671
  H      173.057     -94.049     318.920
  H      169.680     -89.462     323.863
  H      178.756     -93.490     320.344
  H      173.519     -90.572     322.761
  H      175.056     -91.009     319.328
  H      172.620     -92.487     320.512
  H      171.556     -91.932     318.328
  H      172.482     -89.293     318.467
  H      170.273     -89.578     319.305
  H      170.794     -90.810     320.505
  H      178.689     -93.376     324.858
  H      177.199     -92.544     325.342
  P      172.632     -91.286     315.974
  C      172.681     -93.890     315.741
  O      171.917     -92.691     315.671
  O      173.890     -91.325     314.984
  O      171.796     -90.065     315.720
  H      173.667     -90.865     314.160
  H      172.054     -94.726     315.512
  H      173.079     -94.002     316.728
  H      173.484     -93.843     315.035

 6  7  8  9  10  11  12  13  14  15  25  28  32  33  34  35 0
 6-311+G(2d,p)
 ****
 36  37  40 0
 6-311+G(2d,p)
 ****
 1  2  3  4  5  16  17  18  19  20  21  22  23  24 0
 3-21G
 ****
 26  27  29  30  31  38  39 41  42  43  44  45  46  47  48 0
 3-21G
 ****


