%nproc=1
%NoSave
%Mem=1900MB
#P OB98/GEN NMR

erre ene a

0 1
  C      124.455     201.774     -73.345
  O      123.417     202.726     -73.471
  H      124.036     200.767     -73.263
  H      125.084     201.821     -74.237
  H      125.069     201.996     -72.468
  P      122.392     202.836     -72.242
  C      120.644     201.249     -71.163
  O      121.674     201.404     -72.129
  C      120.417     199.768     -70.873
  O      121.681     199.081     -70.758
  C      119.672     199.479     -69.572
  O      118.269     199.654     -69.715
  C      120.033     198.018     -69.357
  O      119.212     197.186     -70.200
  C      121.492     197.975     -69.837
  N      123.535     195.635     -65.770
  C      122.638     195.220     -66.692
  N      122.159     195.895     -67.760
  C      122.714     197.115     -67.837
  C      123.657     197.669     -66.986
  C      124.068     196.876     -65.901
  N      124.936     197.335     -64.922
  N      123.976     198.953     -67.379
  C      123.227     199.176     -68.439
  N      122.455     198.091     -68.758
  O      121.243     203.795     -72.822
  O      122.973     203.372     -70.976
  H      119.416     197.431     -71.121
  H      121.409     204.708     -72.524
  H      122.254     194.217     -66.555
  H      123.209     200.100     -69.001
  H      121.719     197.055     -70.390
  H      119.882     197.684     -68.327
  H      120.071     200.073     -68.742
  H      119.881     199.334     -71.730
  H      119.716     201.689     -71.546
  H      124.789     196.903     -64.015
  H      125.084     198.339     -64.932
  H      120.939     201.773     -70.250
  P      117.427     200.027     -68.402
  C      116.354     198.628     -66.511
  O      117.368     198.698     -67.503
  O      115.936     200.171     -68.970
  O      117.859     201.267     -67.699
  H      115.581     201.054     -68.745
  H      116.429     197.697     -65.990
  H      115.394     198.700     -66.977
  H      116.476     199.435     -65.819

 6  7  8  9  10  11  12  13  14  15  25  28  32  33  34  35 0
 6-311+G(2d,p)
 ****
 36  39  40 0
 6-311+G(2d,p)
 ****
 1  2  3  4  5  16  17  18  19  20  21  22  23  24 0
 3-21G
 ****
 26  27  29  30  31  37  38  41  42  43  44  45  46  47  48 0
 3-21G
 ****


