%nproc=1
%NoSave
%Mem=1900MB
#P OB98/GEN NMR

erre ene a

0 1
  C      -52.697    -684.979    -499.085
  O      -52.753    -686.132    -499.897
  H      -52.649    -684.092    -499.729
  H      -51.803    -684.998    -498.456
  H      -53.590    -684.912    -498.459
  P      -52.715    -687.545    -499.131
  C      -52.798    -688.982    -501.311
  O      -52.029    -688.534    -500.204
  C      -51.964    -689.939    -502.156
  O      -50.970    -689.221    -502.915
  C      -51.188    -690.974    -501.349
  O      -52.002    -692.057    -500.913
  C      -50.156    -691.421    -502.374
  O      -50.786    -692.300    -503.332
  C      -49.790    -690.067    -503.026
  N      -48.640    -689.429    -502.392
  C      -47.369    -689.787    -502.885
  O      -47.258    -690.601    -503.800
  N      -46.256    -689.223    -502.308
  C      -46.389    -688.372    -501.332
  N      -45.242    -687.864    -500.785
  C      -47.698    -687.963    -500.803
  C      -48.767    -688.515    -501.362
  O      -54.246    -688.025    -499.150
  O      -52.086    -687.544    -497.780
  H      -51.033    -693.114    -502.856
  H      -54.310    -688.950    -498.813
  H      -47.749    -687.251    -499.971
  H      -49.758    -688.260    -501.026
  H      -49.575    -690.190    -504.092
  H      -49.328    -691.964    -501.939
  H      -50.662    -690.514    -500.501
  H      -52.631    -690.427    -502.884
  H      -44.364    -688.217    -501.139
  H      -53.091    -688.109    -501.905
  H      -45.238    -687.337    -499.916
  H      -53.699    -689.495    -500.966
  P      -52.038    -692.368    -499.331
  C      -54.577    -692.870    -499.098
  O      -53.250    -693.386    -499.082
  O      -52.576    -690.989    -498.700
  O      -50.725    -692.780    -498.737
  H      -52.127    -690.781    -497.868
  H      -55.271    -693.664    -498.918
  H      -54.777    -692.431    -500.053
  H      -54.680    -692.127    -498.335

 6  7  8  9  10  11  12  13  14  15  16  26  30  31  32  33  35 0
 6-311+G(2d,p)
 ****
 37  38 0
 6-311+G(2d,p)
 ****
 1  2  3  4  5  17  18  19  20  21  22  23  24  25 0
 3-21G
 ****
 27  28  29  34  36  39  40  41  42  43  44  45  46 0
 3-21G
 ****


