%nproc=1
%NoSave
%Mem=1900MB
#P OB98/GEN NMR

erre ene a

0 1
  C      -46.770      27.094      -1.555
  O      -47.516      27.723      -2.574
  H      -46.579      27.820      -0.759
  H      -45.809      26.757      -1.952
  H      -47.315      26.248      -1.130
  P      -48.173      26.823      -3.726
  C      -49.871      28.308      -4.983
  O      -48.533      27.829      -4.922
  C      -50.020      29.561      -4.120
  O      -49.263      30.641      -4.747
  C      -51.480      30.036      -3.976
  O      -51.647      30.609      -2.675
  C      -51.549      31.121      -5.034
  O      -52.619      32.005      -4.814
  C      -50.165      31.750      -4.901
  N      -49.840      32.579      -6.057
  C      -50.044      33.948      -5.925
  O      -50.488      34.477      -4.906
  N      -49.793      34.701      -7.040
  C      -49.473      34.218      -8.273
  O      -49.337      34.932      -9.257
  C      -49.322      32.755      -8.367
  C      -49.502      32.017      -7.271
  O      -49.294      25.934      -3.301
  O      -46.941      26.002      -4.336
  H      -52.634      32.285      -3.880
  H      -47.262      25.204      -4.799
  H      -49.928      35.697      -6.958
  H      -49.085      32.338      -9.335
  H      -49.418      30.936      -7.306
  H      -50.098      32.361      -3.991
  H      -51.683      30.673      -6.024
  H      -52.210      29.239      -4.131
  H      -49.565      29.379      -3.139
  H      -50.533      27.517      -4.612
  H      -50.130      28.532      -6.023
  P      -52.643      29.969      -1.591
  C      -51.191      30.372       0.488
  O      -52.430      30.658      -0.153
  O      -52.629      28.475      -1.554
  O      -54.093      30.488      -2.034
  H      -54.721      29.741      -2.010
  H      -51.153      30.876       1.431
  H      -50.384      30.708      -0.129
  H      -51.105      29.317       0.644

 6  7  8  9  10  11  12  13  14  15  16  26  31  32  33  34  35 0
 6-311+G(2d,p)
 ****
 36  37 0
 6-311+G(2d,p)
 ****
 1  2  3  4  5  17  18  19  20  21  22  23  24  25 0
 3-21G
 ****
 27  28  29  30  38  39  40  41  42  43  44  45 0
 3-21G
 ****


