%nproc=1
%NoSave
%Mem=1900MB
#P OB98/GEN NMR

erre ene a

0 1
  C     -104.972    -358.073    -395.848
  O     -104.985    -358.172    -397.280
  P     -105.762    -356.992    -398.060
  C     -108.130    -358.067    -397.933
  O     -107.287    -356.982    -397.553
  C     -109.594    -357.743    -397.621
  O     -109.822    -357.468    -396.232
  C     -110.114    -356.522    -398.379
  O     -110.436    -356.883    -399.709
  C     -111.336    -356.142    -397.552
  O     -112.491    -356.927    -397.933
  C     -110.899    -356.509    -396.121
  N     -112.393    -352.435    -393.473
  C     -113.116    -353.267    -394.303
  N     -114.435    -353.010    -394.416
  N     -112.605    -354.284    -394.952
  C     -111.275    -354.438    -394.746
  C     -110.448    -353.686    -393.925
  C     -111.034    -352.568    -393.221
  O     -110.438    -351.812    -392.460
  N     -109.160    -354.184    -393.924
  C     -109.196    -355.152    -394.820
  N     -110.461    -355.384    -395.306
  O     -105.856    -357.544    -399.559
  O     -105.061    -355.672    -397.996
  H     -112.707    -356.740    -398.866
  H     -105.274    -357.021    -400.144
  H     -112.836    -351.662    -393.015
  H     -108.334    -355.719    -395.151
  H     -111.714    -356.986    -395.560
  H     -111.611    -355.100    -397.687
  H     -114.910    -352.246    -393.944
  H     -109.374    -355.715    -398.343
  H     -114.998    -353.620    -395.011
  H     -110.200    -358.634    -397.899
  H     -107.829    -358.976    -397.398
  H     -107.980    -358.272    -398.995
  P     -109.356    -356.561    -400.859
  C     -110.108    -354.089    -401.095
  O     -109.055    -354.985    -400.800
  O     -110.188    -356.754    -402.211
  O     -108.153    -357.441    -400.831
  H     -109.659    -357.253    -402.851
  H     -109.933    -353.155    -400.538
  H     -111.078    -354.492    -400.817
  H     -110.111    -353.864    -402.169
  H     -104.433    -358.902    -395.438
  H     -105.977    -358.084    -395.481
  H     -104.496    -357.160    -395.558

 3  4  5  6  7  8  9  10  11  12  23  26  30  31 0
 6-311+G(2d,p)
 ****
 33  35  36  37  38 0
 6-311+G(2d,p)
 ****
 1  2  13  14  15  16  17  18  19  20  21  22  24  25 0
 3-21G
 ****
 27  28  29  32  34  39  40  41  42  43  44  45  46  47  48  49 0
 3-21G
 ****


