%nproc=1
%NoSave
%Mem=1900MB
#P OB98/GEN NMR

erre ene a

0 1
  C      226.782    -194.363     487.567
  O      225.566    -195.030     487.840
  H      227.437    -195.040     487.000
  H      227.284    -194.092     488.503
  H      226.602    -193.467     486.967
  P      224.397    -194.159     488.507
  C      225.457    -193.880     490.891
  O      224.433    -194.448     490.089
  C      224.975    -193.746     492.336
  O      223.823    -192.876     492.415
  C      224.491    -195.052     492.943
  O      225.546    -195.948     493.223
  C      223.784    -194.525     494.190
  O      224.724    -194.206     495.221
  C      223.114    -193.238     493.637
  N      221.687    -193.410     493.399
  C      220.878    -193.429     494.553
  O      221.380    -193.292     495.658
  N      219.533    -193.626     494.393
  C      219.033    -193.767     493.210
  N      217.681    -193.969     493.120
  C      219.837    -193.725     491.975
  C      221.147    -193.547     492.146
  O      223.074    -194.930     488.035
  O      224.417    -192.702     488.168
  H      224.198    -193.901     495.987
  H      223.085    -195.876     488.244
  H      219.372    -193.829     491.001
  H      221.807    -193.514     491.293
  H      223.252    -192.410     494.339
  H      223.092    -195.259     494.611
  H      223.737    -195.512     492.304
  H      225.783    -193.296     492.922
  H      217.164    -194.009     493.992
  H      225.781    -192.913     490.496
  H      217.186    -194.121     492.260
  H      226.326    -194.558     490.848
  P      225.505    -197.450     492.664
  C      224.245    -198.257     494.762
  O      225.414    -198.407     493.945
  O      226.606    -197.800     491.704
  O      224.034    -197.574     492.038
  H      223.304    -197.433     492.674
  H      224.293    -198.942     495.582
  H      223.373    -198.461     494.177
  H      224.197    -197.256     495.136

 6  7  8  9  10  11  12  13  14  15  16  26  30  31  32  33  35 0
 6-311+G(2d,p)
 ****
 37  38 0
 6-311+G(2d,p)
 ****
 1  2  3  4  5  17  18  19  20  21  22  23  24  25 0
 3-21G
 ****
 27  28  29  34  36  39  40  41  42  43  44  45  46 0
 3-21G
 ****


