%nproc=1
%NoSave
%Mem=1900MB
#P OB98/GEN NMR

erre ene a

0 1
  C     -286.050    -468.566    -320.429
  O     -285.622    -467.348    -321.013
  H     -287.130    -468.509    -320.252
  H     -285.544    -468.722    -319.468
  H     -285.844    -469.402    -321.104
  P     -284.046    -467.212    -321.294
  C     -283.429    -466.669    -318.832
  O     -283.310    -467.584    -319.914
  C     -282.252    -466.828    -317.867
  O     -282.281    -465.792    -316.854
  C     -282.214    -468.162    -317.133
  O     -281.602    -469.164    -317.931
  C     -281.386    -467.806    -315.907
  O     -279.977    -467.784    -316.222
  C     -281.889    -466.388    -315.583
  N     -283.139    -466.182    -310.686
  C     -281.899    -466.309    -311.296
  N     -280.833    -466.425    -310.468
  N     -281.718    -466.334    -312.584
  C     -282.873    -466.261    -313.291
  C     -284.160    -466.137    -312.812
  C     -284.343    -466.062    -311.380
  O     -285.407    -465.861    -310.791
  N     -285.071    -466.084    -313.843
  C     -284.340    -466.201    -314.935
  N     -282.996    -466.320    -314.653
  O     -283.829    -465.627    -321.413
  O     -283.544    -467.920    -322.507
  H     -279.703    -468.664    -316.538
  H     -283.161    -465.456    -322.109
  H     -283.218    -466.140    -309.692
  H     -284.718    -466.205    -315.947
  H     -281.090    -465.760    -315.168
  H     -281.516    -468.535    -315.109
  H     -280.934    -466.703    -309.507
  H     -283.223    -468.465    -316.818
  H     -279.937    -466.595    -310.908
  H     -281.333    -466.681    -318.445
  H     -284.363    -466.871    -318.301
  H     -283.447    -465.646    -319.224
  P     -282.293    -470.615    -317.986
  C     -280.961    -471.373    -315.885
  O     -282.228    -471.246    -316.509
  O     -281.227    -471.478    -318.810
  O     -283.635    -470.638    -318.640
  H     -281.556    -471.634    -319.715
  H     -281.083    -471.806    -314.914
  H     -280.512    -470.407    -315.790
  H     -280.332    -472.002    -316.480

 6  7  8  9  10  11  12  13  14  15  26  29  33  34 0
 6-311+G(2d,p)
 ****
 36  38  39  40  41 0
 6-311+G(2d,p)
 ****
 1  2  3  4  5  16  17  18  19  20  21  22  23  24  25 0
 3-21G
 ****
 27  28  30  31  32  35  37  42  43  44  45  46  47 0
 3-21G
 ****
 48  49 0
 3-21G
 ****


