%nproc=1
%NoSave
%Mem=1900MB
#P OB98/GEN NMR

erre ene a

0 1
  C      -65.786     614.186     335.455
  O      -65.400     614.680     336.723
  P      -66.039     616.079     337.203
  C      -63.854     617.211     338.062
  O      -65.101     616.623     338.395
  C      -63.465     618.263     339.098
  O      -64.262     619.452     338.927
  C      -63.688     617.843     340.542
  O      -62.632     617.028     341.034
  C      -63.701     619.182     341.242
  O      -62.347     619.630     341.455
  C      -64.424     620.084     340.222
  N      -67.952     623.217     342.039
  C      -66.641     623.469     341.714
  N      -66.187     624.727     341.956
  N      -65.836     622.575     341.186
  C      -66.425     621.366     341.010
  C      -67.725     620.994     341.290
  C      -68.602     621.989     341.873
  O      -69.764     621.823     342.249
  N      -67.955     619.678     340.958
  C      -66.810     619.265     340.484
  N      -65.846     620.230     340.530
  O      -67.384     615.634     337.967
  O      -66.329     617.055     336.095
  H      -61.908     618.953     342.013
  H      -67.987     616.403     338.059
  H      -68.534     623.945     342.445
  H      -66.647     618.255     340.107
  H      -63.972     621.068     340.167
  H      -64.169     619.138     342.240
  H      -66.735     625.435     342.414
  H      -64.660     617.358     340.672
  H      -65.200     624.909     341.780
  H      -62.416     618.539     338.917
  H      -63.924     617.666     337.055
  H      -63.087     616.412     338.012
  P      -63.032     615.896     342.104
  C      -60.587     615.963     342.967
  O      -61.651     615.174     342.505
  O      -63.785     614.797     341.220
  O      -63.879     616.383     343.234
  H      -64.407     614.274     341.758
  H      -59.819     615.300     343.419
  H      -60.914     616.692     343.723
  H      -60.105     616.504     342.134
  H      -65.289     613.257     335.268
  H      -65.516     614.894     334.699
  H      -66.845     614.033     335.439

 3  4  5  6  7  8  9  10  11  12  23  26  30  31 0
 6-311+G(2d,p)
 ****
 33  35  36  37  38 0
 6-311+G(2d,p)
 ****
 1  2  13  14  15  16  17  18  19  20  21  22  24  25 0
 3-21G
 ****
 27  28  29  32  34  39  40  41  42  43  44  45  46  47  48  49 0
 3-21G
 ****


