%nproc=1
%NoSave
%Mem=1900MB
#P OB98/GEN NMR

erre ene a

0 1
  C     -689.282     120.931    -890.330
  O     -687.915     120.814    -890.630
  H     -689.641     119.978    -889.910
  H     -689.870     121.155    -891.220
  H     -689.446     121.705    -889.560
  P     -687.214     122.101    -891.280
  C     -686.506     120.985    -893.520
  O     -687.397     121.919    -892.860
  C     -686.673     121.110    -895.030
  O     -687.996     120.690    -895.440
  C     -686.469     122.497    -895.590
  O     -685.070     122.775    -895.770
  C     -687.198     122.401    -896.920
  O     -686.321     121.762    -897.910
  C     -688.385     121.475    -896.590
  N     -693.081     122.577    -898.370
  C     -691.981     122.023    -898.980
  N     -690.760     121.809    -898.450
  C     -690.697     122.229    -897.170
  C     -691.728     122.794    -896.410
  C     -692.952     122.983    -897.070
  N     -694.056     123.552    -896.470
  N     -691.290     123.093    -895.160
  C     -690.074     122.649    -895.100
  N     -689.640     122.141    -896.310
  O     -685.826     122.403    -890.800
  O     -688.293     123.238    -890.940
  H     -686.813     121.783    -898.760
  H     -689.198     122.895    -891.070
  H     -692.122     121.721    -900.000
  H     -689.423     122.639    -894.220
  H     -688.585     120.757    -897.410
  H     -687.466     123.367    -897.350
  H     -686.966     123.269    -894.980
  H     -685.936     120.395    -895.500
  H     -686.731     119.957    -893.200
  H     -694.817     123.787    -897.050
  H     -693.925     123.958    -895.550
  H     -685.494     121.240    -893.220
  P     -684.558     124.264    -896.080
  C     -683.639     123.718    -898.440
  O     -684.630     124.428    -897.670
  O     -683.228     124.600    -895.470
  O     -685.741     125.219    -895.550
  H     -685.413     126.132    -895.440
  H     -683.793     123.908    -899.482
  H     -683.726     122.668    -898.252
  H     -682.662     124.051    -898.158

 6  7  8  9  10  11  12  13  14  15  25  28  32  33  34  35 0
 6-311+G(2d,p)
 ****
 36  39  40 0
 6-311+G(2d,p)
 ****
 1  2  3  4  5  16  17  18  19  20  21  22  23  24 0
 3-21G
 ****
 26  27  29  30  31  37  38  41  42  43  44  45  46  47 0
 3-21G
 ****
 48 0
 3-21G
 ****


