%nproc=1
%NoSave
%Mem=1900MB
#P OB98/GEN NMR

erre ene a

0 1
  C       65.654      41.771     113.175
  O       64.699      42.594     112.535
  H       66.434      42.410     113.600
  H       66.117      41.096     112.451
  H       65.193      41.197     113.982
  P       63.390      41.913     111.907
  C       62.879      40.286     109.985
  O       63.892      40.962     110.714
  C       63.473      39.588     108.762
  O       63.705      40.578     107.727
  C       64.803      38.880     109.043
  O       64.837      37.668     108.290
  C       65.837      39.846     108.502
  O       67.042      39.189     108.113
  C       65.089      40.488     107.335
  N       69.083      42.956     105.470
  C       68.842      41.600     105.576
  N       69.818      40.774     105.145
  N       67.739      41.097     106.065
  C       66.842      42.039     106.447
  C       66.963      43.407     106.394
  C       68.194      43.953     105.863
  O       68.469      45.141     105.757
  N       65.845      44.024     106.900
  C       65.054      43.029     107.259
  N       65.618      41.805     107.014
  O       62.297      42.859     111.524
  O       62.915      40.878     113.028
  H       67.656      39.883     107.788
  H       62.176      41.247     113.548
  H       69.953      43.289     105.094
  H       64.074      43.139     107.705
  H       65.152      39.889     106.418
  H       66.085      40.592     109.268
  H       70.686      41.090     104.740
  H       64.955      38.664     110.105
  H       69.655      39.774     105.190
  H       62.729      38.885     108.367
  H       62.136      41.023     109.663
  H       62.390      39.552     110.635
  P       64.277      36.324     108.962
  C       65.064      34.758     110.849
  O       65.457      35.666     109.827
  O       63.564      35.390     108.042
  O       63.288      36.883     110.097
  H       62.569      36.236     110.235
  H       65.933      34.389     111.352
  H       64.530      33.940     110.413
  H       64.433      35.262     111.551

 6  7  8  9  10  11  12  13  14  15  26  29  33  34 0
 6-311+G(2d,p)
 ****
 36  38  39  40  41 0
 6-311+G(2d,p)
 ****
 1  2  3  4  5  16  17  18  19  20  21  22  23  24  25 0
 3-21G
 ****
 27  28  30  31  32  35  37  42  43  44  45  46  47 0
 3-21G
 ****
 48  49 0
 3-21G
 ****


