%nproc=1
%NoSave
%Mem=1900MB
#P OB98/GEN NMR

erre ene a

0 1
  C     1151.586    -897.250    -562.600
  O     1151.392    -895.980    -563.168
  P     1151.812    -895.710    -564.682
  C     1149.415    -896.150    -565.542
  O     1150.794    -896.490    -565.666
  C     1148.604    -896.290    -566.815
  O     1149.108    -895.420    -567.853
  C     1148.614    -897.720    -567.411
  O     1147.305    -897.880    -568.002
  C     1149.710    -897.650    -568.478
  O     1149.622    -898.710    -569.418
  C     1149.502    -896.240    -569.011
  N     1150.705    -895.720    -569.650
  C     1150.792    -895.880    -571.064
  O     1149.881    -896.490    -571.648
  N     1151.909    -895.420    -571.693
  C     1152.880    -894.870    -570.964
  N     1153.939    -894.430    -571.704
  C     1152.858    -894.770    -569.530
  C     1151.761    -895.170    -568.927
  O     1153.256    -895.900    -564.991
  O     1151.397    -894.170    -564.916
  H     1150.217    -898.470    -570.176
  H     1152.013    -893.780    -565.574
  H     1153.679    -894.340    -568.994
  H     1151.638    -895.130    -567.875
  H     1148.653    -896.200    -569.714
  H     1150.689    -897.730    -567.942
  H     1148.759    -898.510    -566.679
  H     1147.581    -895.980    -566.576
  H     1153.959    -894.570    -572.700
  H     1149.362    -895.100    -565.174
  H     1154.814    -894.140    -571.257
  H     1148.960    -896.780    -564.722
  P     1146.114    -898.670    -567.304
  C     1145.092    -896.390    -566.695
  O     1145.489    -897.640    -566.209
  O     1146.466    -900.000    -566.764
  O     1144.927    -898.720    -568.421
  H     1144.312    -899.450    -568.159
  H     1144.487    -895.860    -565.951
  H     1144.497    -896.440    -567.631
  H     1145.941    -895.750    -566.938
  H     1151.248    -897.242    -561.585
  H     1152.627    -897.498    -562.627
  H     1151.032    -897.978    -563.155

 3  4  5  6  7  8  9  10  11  12  13  23  27  28  29  30  32 0
 6-311+G(2d,p)
 ****
 34  35 0
 6-311+G(2d,p)
 ****
 1  2  14  15  16  17  18  19  20  21  22  24  25  26 0
 3-21G
 ****
 31  33  36  37  38  39  40  41  42  43  44  45  46 0
 3-21G
 ****


