%nproc=1
%NoSave
%Mem=1900MB
#P OB98/GEN NMR

erre ene a

0 1
  C      211.930    -499.664    -471.529
  O      210.967    -500.721    -471.552
  P      209.778    -500.702    -470.487
  C      207.913    -500.671    -472.264
  O      208.508    -499.992    -471.163
  C      206.429    -500.950    -471.999
  O      205.703    -499.737    -471.716
  C      205.719    -501.584    -473.182
  O      206.081    -502.946    -473.314
  C      204.265    -501.328    -472.825
  O      203.778    -502.310    -471.907
  C      204.336    -499.945    -472.138
  N      203.866    -498.852    -472.984
  C      202.997    -497.943    -472.374
  O      202.644    -498.102    -471.208
  N      202.542    -496.877    -473.116
  C      202.917    -496.734    -474.347
  N      202.437    -495.661    -475.028
  C      203.823    -497.687    -475.024
  C      204.248    -498.716    -474.295
  O      210.132    -500.202    -469.125
  O      209.324    -502.240    -470.430
  H      203.873    -503.174    -472.351
  H      208.976    -502.438    -469.540
  H      204.105    -497.525    -476.054
  H      204.911    -499.451    -474.716
  H      203.734    -499.938    -471.224
  H      203.613    -501.360    -473.709
  H      205.977    -501.041    -474.109
  H      206.361    -501.614    -471.124
  H      201.810    -495.038    -474.532
  H      208.446    -501.614    -472.437
  H      202.707    -495.436    -475.978
  H      208.045    -500.059    -473.169
  P      207.044    -503.351    -474.540
  C      209.158    -503.800    -473.101
  O      208.549    -503.004    -474.103
  O      206.716    -502.226    -475.634
  O      206.825    -504.720    -475.091
  H      206.785    -502.611    -476.529
  H      210.241    -503.664    -473.155
  H      208.938    -504.861    -473.253
  H      208.806    -503.492    -472.116
  H      212.654    -499.824    -472.300
  H      212.420    -499.648    -470.578
  H      211.437    -498.729    -471.692

 3  4  5  6  7  8  9  10  11  12  13  23  27  28  29  30  32 0
 6-311+G(2d,p)
 ****
 34  35 0
 6-311+G(2d,p)
 ****
 1  2  14  15  16  17  18  19  20  21  22  24  25  26 0
 3-21G
 ****
 31  33  36  37  38  39  40  41  42  43  44  45  46 0
 3-21G
 ****


