%nproc=1
%NoSave
%Mem=1900MB
#P OB98/GEN NMR

erre ene a

0 1
  C     -288.483      96.323     204.049
  O     -287.575      95.368     203.536
  H     -287.957      97.273     204.178
  H     -288.860      95.994     205.021
  H     -289.316      96.469     203.355
  P     -288.180      93.948     203.111
  C     -289.103      91.867     204.418
  O     -288.397      93.100     204.458
  C     -289.430      91.407     205.837
  O     -290.248      92.374     206.523
  C     -290.248      90.129     205.897
  O     -289.507      88.986     205.533
  C     -290.680      90.147     207.356
  O     -289.624      89.697     208.214
  C     -290.955      91.656     207.573
  N     -292.377      91.970     207.578
  C     -293.065      91.655     208.757
  O     -292.467      91.156     209.710
  N     -294.416      91.888     208.812
  C     -295.022      92.411     207.792
  N     -296.363      92.608     207.906
  C     -294.332      92.782     206.544
  C     -293.024      92.532     206.503
  O     -286.926      93.222     202.433
  O     -289.400      94.007     202.251
  H     -289.400      88.790     207.921
  H     -286.136      93.205     202.997
  H     -294.878      93.225     205.722
  H     -292.442      92.772     205.623
  H     -290.528      91.992     208.527
  H     -291.538      89.497     207.539
  H     -291.150      90.227     205.279
  H     -288.485      91.305     206.387
  H     -296.809      92.322     208.771
  H     -288.526      91.104     203.887
  H     -296.945      92.976     207.170
  H     -290.026      92.034     203.854
  P     -290.248      87.602     205.213
  C     -292.043      86.179     206.388
  O     -291.091      87.229     206.529
  O     -289.365      86.509     204.713
  O     -291.399      88.029     204.183
  H     -292.033      88.682     204.531
  H     -292.540      86.020     207.322
  H     -291.542      85.281     206.093
  H     -292.762      86.447     205.643

 6  7  8  9  10  11  12  13  14  15  16  26  30  31  32  33  35 0
 6-311+G(2d,p)
 ****
 37  38 0
 6-311+G(2d,p)
 ****
 1  2  3  4  5  17  18  19  20  21  22  23  24  25 0
 3-21G
 ****
 27  28  29  34  36  39  40  41  42  43  44  45  46 0
 3-21G
 ****


