%nproc=1
%NoSave
%Mem=1900MB
#P OB98/GEN NMR

erre ene a

0 1
  C      -52.487    -298.226      27.196
  O      -53.495    -297.483      26.536
  H      -51.730    -297.535      27.572
  H      -52.014    -298.921      26.495
  H      -52.915    -298.777      28.037
  P      -54.676    -298.333      25.856
  C      -56.307    -296.789      27.149
  O      -55.974    -298.119      26.777
  C      -57.687    -296.415      26.615
  O      -58.660    -297.428      26.950
  C      -58.229    -295.094      27.145
  O      -57.719    -294.000      26.401
  C      -59.727    -295.288      26.955
  O      -60.109    -295.043      25.584
  C      -59.905    -296.769      27.309
  N      -63.578    -296.720      30.778
  C      -63.592    -296.315      29.459
  N      -64.750    -295.792      28.997
  N      -62.559    -296.403      28.660
  C      -61.453    -296.890      29.268
  C      -61.311    -297.323      30.568
  C      -62.476    -297.270      31.425
  O      -62.548    -297.689      32.576
  N      -60.033    -297.765      30.806
  C      -59.400    -297.571      29.663
  N      -60.219    -297.034      28.703
  O      -54.261    -299.852      26.154
  O      -54.871    -298.104      24.396
  H      -59.719    -294.203      25.289
  H      -54.493    -300.397      25.377
  H      -64.407    -296.660      31.338
  H      -58.358    -297.806      29.480
  H      -60.701    -297.240      26.717
  H      -60.306    -294.593      27.563
  H      -65.462    -295.438      29.621
  H      -58.013    -294.978      28.216
  H      -64.737    -295.430      28.052
  H      -57.617    -296.389      25.520
  H      -55.559    -296.105      26.735
  H      -56.301    -296.709      28.242
  P      -57.858    -292.529      27.023
  C      -55.319    -292.093      27.362
  O      -56.587    -292.273      27.974
  O      -59.074    -292.689      28.056
  O      -58.139    -291.454      26.029
  H      -59.875    -292.272      27.690
  H      -54.578    -291.934      28.117
  H      -55.354    -291.244      26.712
  H      -55.069    -292.966      26.795

 6  7  8  9  10  11  12  13  14  15  26  29  33  34 0
 6-311+G(2d,p)
 ****
 36  38  39  40  41 0
 6-311+G(2d,p)
 ****
 1  2  3  4  5  16  17  18  19  20  21  22  23  24  25 0
 3-21G
 ****
 27  28  30  31  32  35  37  42  43  44  45  46  47 0
 3-21G
 ****
 48  49 0
 3-21G
 ****


