%nproc=1
%NoSave
%Mem=1900MB
#P OB98/GEN NMR

erre ene a

0 1
  C      -50.583     614.663     495.235
  O      -49.781     615.789     494.950
  P      -50.167     616.909     493.881
  C      -49.345     615.208     492.060
  O      -49.427     616.563     492.493
  C      -47.904     614.683     492.169
  O      -47.885     613.299     491.724
  C      -46.952     615.475     491.251
  O      -45.690     615.770     491.836
  C      -46.953     614.642     489.971
  O      -45.838     614.887     489.127
  C      -47.078     613.218     490.516
  N      -46.886     610.992     485.952
  C      -45.926     611.760     486.584
  N      -44.862     612.126     485.836
  N      -46.023     612.158     487.835
  C      -47.200     611.813     488.417
  C      -48.218     611.052     487.895
  C      -48.083     610.595     486.521
  O      -48.955     609.999     485.890
  N      -49.287     610.959     488.761
  C      -48.916     611.686     489.790
  N      -47.672     612.252     489.624
  O      -50.154     618.323     494.349
  O      -51.698     616.519     493.541
  H      -46.073     614.576     488.238
  H      -52.184     617.362     493.363
  H      -46.795     610.788     484.967
  H      -49.532     611.859     490.680
  H      -46.106     612.815     490.801
  H      -47.849     614.919     489.391
  H      -44.838     611.962     484.840
  H      -47.369     616.465     491.030
  H      -44.280     612.882     486.190
  H      -47.583     614.707     493.214
  H      -49.685     615.196     491.027
  H      -50.033     614.578     492.646
  P      -44.938     617.170     491.930
  C      -43.290     617.036     489.962
  O      -43.448     616.998     491.374
  O      -44.712     617.412     493.498
  O      -45.698     618.331     491.342
  H      -44.859     618.351     493.719
  H      -42.308     616.631     489.712
  H      -43.355     618.065     489.613
  H      -44.063     616.424     489.472
  H      -50.106     614.066     495.984
  H      -50.712     614.083     494.345
  H      -51.539     614.987     495.591

 3  4  5  6  7  8  9  10  11  12  23  26  30  31 0
 6-311+G(2d,p)
 ****
 33  35  36  37  38 0
 6-311+G(2d,p)
 ****
 1  2  13  14  15  16  17  18  19  20  21  22  24  25 0
 3-21G
 ****
 27  28  29  32  34  39  40  41  42  43  44  45  46  47  48  49 0
 3-21G
 ****


