%nproc=1
%NoSave
%Mem=1900MB
#P OB98/GEN NMR

erre ene a

0 1
  C      173.809    -322.755    -169.835
  O      175.006    -323.306    -170.339
  H      173.497    -323.336    -168.963
  H      173.028    -322.812    -170.597
  H      173.946    -321.713    -169.529
  P      175.914    -322.416    -171.312
  C      175.915    -322.015    -173.863
  O      175.126    -322.251    -172.703
  C      175.270    -320.985    -174.791
  O      175.567    -319.649    -174.338
  C      175.806    -321.079    -176.221
  O      175.183    -322.049    -177.040
  C      175.540    -319.669    -176.745
  O      174.199    -319.554    -177.249
  C      175.718    -318.802    -175.493
  N      178.756    -315.215    -177.495
  C      177.508    -315.627    -177.912
  N      177.034    -315.050    -179.042
  N      176.803    -316.538    -177.291
  C      177.441    -317.090    -176.233
  C      178.686    -316.775    -175.735
  C      179.433    -315.728    -176.398
  O      180.551    -315.331    -176.073
  N      179.003    -317.549    -174.644
  C      177.987    -318.382    -174.535
  N      177.003    -318.127    -175.460
  O      177.113    -323.403    -171.712
  O      176.435    -321.145    -170.717
  H      174.046    -318.623    -177.501
  H      177.909    -322.884    -171.939
  H      179.242    -314.491    -177.997
  H      177.902    -319.169    -173.789
  H      174.945    -318.031    -175.427
  H      176.212    -319.410    -177.568
  H      177.588    -314.439    -179.617
  H      176.890    -321.242    -176.213
  H      176.259    -315.511    -179.521
  H      174.180    -321.103    -174.760
  H      176.012    -322.974    -174.375
  H      176.925    -321.697    -173.578
  P      175.968    -322.662    -178.298
  C      177.003    -321.653    -180.461
  O      176.107    -321.491    -179.381
  O      174.888    -323.653    -178.939
  O      177.235    -323.369    -177.957
  H      175.036    -324.565    -178.628
  H      176.972    -320.784    -181.084
  H      176.721    -322.512    -181.033
  H      177.996    -321.786    -180.084

 6  7  8  9  10  11  12  13  14  15  26  29  33  34 0
 6-311+G(2d,p)
 ****
 36  38  39  40  41 0
 6-311+G(2d,p)
 ****
 1  2  3  4  5  16  17  18  19  20  21  22  23  24  25 0
 3-21G
 ****
 27  28  30  31  32  35  37  42  43  44  45  46  47 0
 3-21G
 ****
 48  49 0
 3-21G
 ****


