%nproc=1
%NoSave
%Mem=1900MB
#P OB98/GEN NMR

erre ene a

0 1
  C      413.600    -201.857    -330.755
  O      413.906    -202.590    -331.917
  P      413.472    -202.066    -333.367
  C      410.983    -202.647    -333.025
  O      411.933    -201.609    -333.252
  C      409.573    -202.165    -333.397
  O      408.713    -203.345    -333.589
  C      408.930    -201.288    -332.302
  O      408.437    -200.027    -332.772
  C      407.895    -202.218    -331.686
  O      406.858    -201.540    -330.996
  C      407.479    -203.063    -332.900
  N      406.768    -204.283    -332.519
  C      405.422    -204.373    -332.882
  O      404.813    -203.509    -333.505
  N      404.759    -205.485    -332.451
  C      405.258    -206.445    -331.606
  O      404.575    -207.366    -331.183
  C      406.674    -206.274    -331.227
  C      407.362    -205.229    -331.710
  O      413.749    -202.995    -334.498
  O      414.225    -200.655    -333.484
  H      406.284    -202.210    -330.585
  H      413.992    -200.003    -332.795
  H      403.794    -205.571    -332.702
  H      407.092    -207.012    -330.552
  H      408.402    -205.077    -331.443
  H      406.844    -202.497    -333.592
  H      408.404    -202.854    -330.960
  H      409.668    -201.012    -331.532
  H      409.639    -201.628    -334.346
  H      411.006    -202.924    -331.968
  H      411.260    -203.539    -333.602
  P      408.506    -198.651    -331.949
  C      405.918    -198.466    -331.748
  O      407.165    -198.508    -331.087
  O      408.857    -197.446    -332.767
  O      409.632    -198.933    -330.845
  H      410.074    -198.099    -330.607
  H      405.218    -197.892    -331.142
  H      405.518    -199.478    -331.860
  H      405.999    -197.990    -332.729
  H      413.975    -202.375    -329.897
  H      412.539    -201.749    -330.671
  H      414.054    -200.890    -330.814

 3  4  5  6  7  8  9  10  11  12  13  23  28  29  30  31  32 0
 6-311+G(2d,p)
 ****
 33  34 0
 6-311+G(2d,p)
 ****
 1  2  14  15  16  17  18  19  20  21  22  24  25  26  27 0
 3-21G
 ****
 35  36  37  38  39  40  41  42  43  44  45 0
 3-21G
 ****


