%nproc=1
%NoSave
%Mem=1900MB
#P OB98/GEN NMR

erre ene a

0 1
  C      -95.650      18.606     209.154
  O      -94.928      18.455     207.949
  H      -95.318      17.839     209.859
  H      -96.721      18.478     208.977
  H      -95.460      19.590     209.593
  P      -95.273      19.420     206.718
  C      -93.128      20.839     206.502
  O      -93.883      19.748     205.984
  C      -91.631      20.513     206.454
  O      -91.414      19.320     207.248
  C      -91.133      20.240     205.027
  O      -90.003      21.029     204.666
  C      -90.976      18.723     204.994
  O      -90.027      18.248     204.063
  C      -90.667      18.378     206.456
  N      -91.011      17.007     206.824
  C      -89.967      16.093     206.933
  O      -88.777      16.355     206.770
  N      -90.332      14.813     207.263
  C      -91.601      14.369     207.478
  O      -91.867      13.210     207.778
  C      -92.664      15.375     207.326
  C      -92.326      16.628     207.009
  O      -96.104      20.615     207.046
  O      -96.013      18.460     205.670
  H      -90.233      17.309     203.880
  H      -96.975      18.616     205.709
  H      -89.581      14.146     207.357
  H      -93.686      15.055     207.479
  H      -93.085      17.396     206.891
  H      -89.607      18.521     206.667
  H      -91.943      18.284     204.720
  H      -91.889      20.533     204.288
  H      -91.075      21.331     206.927
  H      -93.447      21.010     207.535
  H      -93.330      21.740     205.912
  P      -89.857      21.838     203.299
  C      -89.103      24.218     204.101
  O      -88.753      22.977     203.507
  O      -91.138      22.249     202.654
  O      -89.134      20.782     202.318
  H      -89.468      20.964     201.416
  H      -88.237      24.845     204.154
  H      -89.481      24.047     205.087
  H      -89.854      24.697     203.509

 6  7  8  9  10  11  12  13  14  15  16  26  31  32  33  34  35 0
 6-311+G(2d,p)
 ****
 36  37 0
 6-311+G(2d,p)
 ****
 1  2  3  4  5  17  18  19  20  21  22  23  24  25 0
 3-21G
 ****
 27  28  29  30  38  39  40  41  42  43  44  45 0
 3-21G
 ****


