%nproc=1
%NoSave
%Mem=1900MB
#P OB98/GEN NMR

erre ene a

0 1
  C       31.410    -798.418    -105.981
  O       30.282    -799.247    -106.114
  P       28.886    -798.826    -105.447
  C       28.159    -797.441    -107.538
  O       28.430    -797.458    -106.146
  C       26.656    -797.261    -107.805
  O       26.281    -795.927    -107.341
  C       26.252    -797.303    -109.279
  O       24.842    -797.535    -109.358
  C       26.565    -795.901    -109.731
  O       25.868    -795.547    -110.935
  C       26.194    -795.043    -108.483
  N       27.113    -793.905    -108.316
  C       26.615    -792.647    -108.675
  O       25.454    -792.453    -109.036
  N       27.534    -791.609    -108.686
  C       28.861    -791.753    -108.414
  O       29.710    -790.915    -108.714
  C       29.273    -793.031    -107.832
  C       28.390    -794.050    -107.833
  O       29.321    -798.381    -103.981
  O       27.845    -799.900    -105.411
  H       26.370    -795.966    -111.677
  H       29.197    -799.113    -103.341
  H       27.203    -790.739    -109.071
  H       30.290    -793.140    -107.466
  H       28.688    -795.032    -107.451
  H       25.174    -794.649    -108.562
  H       27.632    -795.812    -109.933
  H       26.794    -798.060    -109.871
  H       26.079    -797.983    -107.218
  H       28.510    -798.384    -107.985
  H       28.694    -796.636    -108.019
  P       24.291    -798.393    -110.597
  C       24.006    -800.505    -109.174
  O       24.662    -799.930    -110.273
  O       24.665    -797.917    -111.960
  O       22.692    -798.367    -110.371
  H       22.245    -798.599    -111.209
  H       23.910    -801.598    -109.359
  H       23.002    -800.091    -109.027
  H       24.604    -800.365    -108.274
  H       32.241    -798.862    -106.489
  H       31.647    -798.302    -104.944
  H       31.201    -797.460    -106.409

 3  4  5  6  7  8  9  10  11  12  13  23  28  29  30  31  32 0
 6-311+G(2d,p)
 ****
 33  34 0
 6-311+G(2d,p)
 ****
 1  2  14  15  16  17  18  19  20  21  22  24  25  26  27 0
 3-21G
 ****
 35  36  37  38  39  40  41  42  43  44  45 0
 3-21G
 ****


