%nproc=1
%NoSave
%Mem=1900MB
#P OB98/GEN NMR

erre ene a

0 1
  C      154.033      69.114     -71.138
  O      152.729      69.638     -71.407
  P      152.251      69.625     -72.944
  C      151.600      67.111     -73.121
  O      151.156      68.461     -73.093
  C      151.304      66.474     -74.477
  O      152.047      65.254     -74.649
  C      149.847      66.083     -74.678
  O      149.047      67.200     -75.033
  C      149.961      65.109     -75.843
  O      150.022      65.836     -77.084
  C      151.302      64.412     -75.563
  N      152.698      59.544     -75.769
  C      153.067      60.606     -76.571
  N      153.957      60.336     -77.551
  N      152.608      61.820     -76.426
  C      151.749      61.949     -75.386
  C      151.305      60.975     -74.522
  C      151.797      59.627     -74.714
  O      151.478      58.645     -74.053
  N      150.444      61.488     -73.588
  C      150.388      62.775     -73.866
  N      151.152      63.101     -74.960
  O      153.525      69.032     -73.710
  O      151.854      70.964     -73.467
  H      150.141      65.176     -77.796
  H      153.540      69.352     -74.631
  H      153.077      58.628     -75.930
  H      149.817      63.508     -73.311
  H      151.904      64.306     -76.471
  H      149.105      64.432     -75.914
  H      154.405      59.442     -77.674
  H      149.455      65.561     -73.795
  H      154.267      61.111     -78.126
  H      151.611      67.181     -75.260
  H      151.102      66.540     -72.336
  H      152.672      67.086     -72.902
  P      147.790      67.530     -74.092
  C      148.726      69.411     -72.571
  O      147.943      69.075     -73.699
  O      148.135      66.748     -72.739
  O      146.471      67.121     -74.655
  H      147.314      66.492     -72.278
  H      149.652      68.831     -72.544
  H      148.153      69.231     -71.658
  H      148.980      70.474     -72.624
  H      154.233      69.177     -70.089
  H      154.763      69.682     -71.675
  H      154.077      68.091     -71.449

 3  4  5  6  7  8  9  10  11  12  23  26  30  31  33  0
 6-311+G(2d,p)
 ****
 35  36  37  38 0
 6-311+G(2d,p)
 ****
 1  2  13  14  15  16  17  18  19  20  21  22  24  25  27  28  29 0
 3-21G
 ****
 32  34  39  40  41  42  43  44  45  46  47  48  49 0
 3-21G
 ****


