%nproc=1
%NoSave
%Mem=1900MB
#P OB98/GEN NMR

erre ene a

0 1
  C     -366.525     -26.913     181.078
  O     -366.091     -28.236     181.323
  H     -365.817     -26.434     180.397
  H     -366.558     -26.341     182.008
  H     -367.513     -26.916     180.609
  P     -366.967     -29.152     182.303
  C     -365.294     -29.278     184.266
  O     -365.916     -29.973     183.193
  C     -364.645     -30.269     185.225
  O     -365.647     -31.095     185.850
  C     -363.654     -31.221     184.555
  O     -362.399     -30.584     184.376
  C     -363.616     -32.342     185.580
  O     -362.806     -31.946     186.704
  C     -365.095     -32.432     185.995
  N     -368.224     -36.418     186.113
  C     -367.548     -35.791     187.141
  N     -367.695     -36.332     188.370
  N     -366.783     -34.743     186.975
  C     -366.675     -34.360     185.683
  C     -367.282     -34.910     184.578
  C     -368.170     -36.034     184.781
  O     -368.802     -36.608     183.899
  N     -366.881     -34.288     183.423
  C     -366.065     -33.339     183.833
  N     -365.894     -33.349     185.197
  O     -368.010     -30.011     181.653
  O     -367.601     -28.115     183.341
  H     -361.886     -31.914     186.386
  H     -368.479     -27.814     183.046
  H     -368.784     -37.234     186.302
  H     -365.575     -32.619     183.190
  H     -365.216     -32.727     187.043
  H     -363.197     -33.269     185.188
  H     -368.027     -37.280     188.501
  H     -364.047     -31.623     183.616
  H     -367.168     -35.918     189.128
  H     -364.157     -29.695     186.023
  H     -366.070     -28.700     184.778
  H     -364.537     -28.587     183.882
  P     -361.545     -30.801     183.034
  C     -359.319     -30.822     184.348
  O     -360.103     -30.175     183.356
  O     -362.188     -30.282     181.792
  O     -361.242     -32.368     182.999
  H     -361.945     -32.896     182.546
  H     -358.389     -30.305     184.461
  H     -359.131     -31.833     184.051
  H     -359.846     -30.816     185.279

 6  7  8  9  10  11  12  13  14  15  26  29  33  34 0
 6-311+G(2d,p)
 ****
 36  38  39  40  41 0
 6-311+G(2d,p)
 ****
 1  2  3  4  5  16  17  18  19  20  21  22  23  24  25 0
 3-21G
 ****
 27  28  30  31  32  35  37  42  43  44  45  46  47 0
 3-21G
 ****
 48  49 0
 3-21G
 ****


