%nproc=1
%NoSave
%Mem=1900MB
#P OB98/GEN NMR

erre ene a

0 1
  C     -302.449    -226.859     150.915
  O     -302.776    -227.830     151.881
  H     -303.110    -225.997     151.042
  H     -302.601    -227.265     149.911
  H     -301.414    -226.524     151.028
  P     -301.789    -229.073     152.106
  C     -302.086    -231.637     152.146
  O     -302.646    -230.388     151.767
  C     -303.125    -232.750     151.982
  O     -304.220    -232.490     152.913
  C     -303.726    -232.826     150.563
  O     -304.009    -234.200     150.262
  C     -305.020    -232.056     150.743
  O     -305.952    -232.351     149.732
  C     -305.435    -232.500     152.143
  N     -306.458    -231.617     152.699
  C     -307.711    -231.647     152.094
  O     -307.981    -232.355     151.121
  N     -308.637    -230.770     152.587
  C     -308.406    -229.817     153.534
  O     -309.251    -229.006     153.887
  C     -307.049    -229.799     154.106
  C     -306.154    -230.690     153.675
  O     -301.074    -229.117     153.418
  O     -300.778    -229.002     150.864
  H     -306.819    -231.962     149.953
  H     -299.958    -229.490     151.067
  H     -309.552    -230.785     152.167
  H     -306.825    -229.042     154.849
  H     -305.139    -230.695     154.058
  H     -305.814    -233.530     152.130
  H     -304.824    -230.979     150.711
  H     -303.076    -232.403     149.797
  H     -302.678    -233.707     152.273
  H     -301.773    -231.571     153.193
  H     -301.208    -231.848     151.523
  P     -303.494    -234.889     148.907
  C     -304.037    -234.950     146.396
  O     -304.278    -234.291     147.635
  O     -303.473    -236.385     148.952
  O     -302.006    -234.330     148.718
  H     -301.413    -235.070     148.488
  H     -304.604    -234.475     145.623
  H     -304.331    -235.976     146.475
  H     -302.995    -234.895     146.159

 6  7  8  9  10  11  12  13  14  15  16  26  31  32  33  34  35 0
 6-311+G(2d,p)
 ****
 36  37 0
 6-311+G(2d,p)
 ****
 1  2  3  4  5  17  18  19  20  21  22  23  24  25 0
 3-21G
 ****
 27  28  29  30  38  39  40  41  42  43  44  45 0
 3-21G
 ****


