%nproc=1
%NoSave
%Mem=1900MB
#P OB98/GEN NMR

erre ene a

0 1
  C      318.776     398.347    -160.337
  O      319.790     398.271    -159.365
  P      321.310     398.629    -159.737
  C      322.107     396.183    -159.596
  O      321.927     397.309    -160.433
  C      322.700     395.025    -160.392
  O      321.838     394.659    -161.501
  C      324.036     395.343    -161.045
  O      325.139     395.577    -160.193
  C      324.163     394.199    -162.038
  O      324.644     393.014    -161.409
  C      322.692     394.028    -162.493
  N      322.461     394.568    -163.836
  C      323.230     394.014    -164.852
  O      324.060     393.125    -164.674
  N      323.038     394.551    -166.100
  C      322.201     395.584    -166.414
  O      322.111     396.048    -167.548
  C      321.434     396.141    -165.290
  C      321.588     395.615    -164.068
  O      322.129     399.175    -158.624
  O      321.159     399.630    -160.987
  H      325.570     393.190    -161.138
  H      320.696     399.257    -161.758
  H      323.593     394.171    -166.849
  H      320.751     396.953    -165.503
  H      321.034     396.013    -163.226
  H      322.423     392.961    -162.505
  H      324.860     394.444    -162.850
  H      323.920     396.273    -161.625
  H      322.763     394.155    -159.735
  H      321.132     395.877    -159.200
  H      322.744     396.449    -158.743
  P      326.386     396.507    -160.594
  C      327.833     394.577    -161.554
  O      327.172     395.804    -161.805
  O      327.201     397.050    -159.473
  O      325.648     397.728    -161.340
  H      326.163     398.539    -161.206
  H      328.334     394.269    -162.471
  H      327.104     393.800    -161.285
  H      328.565     394.692    -160.763
  H      317.840     398.072    -159.898
  H      319.002     397.679    -161.142
  H      318.715     399.348    -160.711

 3  4  5  6  7  8  9  10  11  12  13  23  28  29  30  31  32 0
 6-311+G(2d,p)
 ****
 33  34 0
 6-311+G(2d,p)
 ****
 1  2  14  15  16  17  18  19  20  21  22  24  25  26  27 0
 3-21G
 ****
 35  36  37  38  39  40  41  42  43  44  45 0
 3-21G
 ****


