%nproc=1
%NoSave
%Mem=1900MB
#P OB98/GEN NMR

erre ene a

0 1
  C     -251.948      69.739     328.234
  O     -251.295      70.595     329.150
  P     -249.837      70.230     329.708
  C     -250.586      70.506     332.162
  O     -250.082      69.614     331.170
  C     -251.713      69.852     332.958
  O     -252.757      69.389     332.076
  C     -251.281      68.634     333.763
  O     -250.593      69.030     334.937
  C     -252.620      67.955     334.010
  O     -253.305      68.543     335.127
  C     -253.377      68.244     332.694
  N     -253.398      67.090     331.800
  C     -254.573      66.329     331.811
  O     -255.498      66.622     332.570
  N     -254.648      65.218     331.000
  C     -253.630      64.894     330.268
  N     -253.763      63.781     329.495
  C     -252.365      65.654     330.248
  C     -252.319      66.726     331.033
  O     -248.834      71.335     329.636
  O     -249.424      68.946     328.841
  H     -254.121      68.013     335.256
  H     -249.186      69.196     327.917
  H     -251.540      65.334     329.627
  H     -251.426      67.338     331.086
  H     -254.417      68.531     332.906
  H     -252.509      66.888     334.231
  H     -250.650      67.986     333.149
  H     -252.143      70.613     333.624
  H     -254.634      63.272     329.557
  H     -250.969      71.399     331.658
  H     -253.021      63.417     328.911
  H     -249.768      70.808     332.824
  P     -249.007      68.861     335.026
  C     -249.254      67.299     337.046
  O     -248.698      67.470     335.750
  O     -248.265      70.040     335.570
  O     -248.575      68.579     333.507
  H     -247.784      69.110     333.297
  H     -249.267      66.233     337.281
  H     -250.277      67.682     337.085
  H     -248.637      67.819     337.778
  H     -252.903      70.150     327.981
  H     -252.081      68.775     328.679
  H     -251.354      69.644     327.349

 3  4  5  6  7  8  9  10  11  12  13  23  27  28  29  30  32 0
 6-311+G(2d,p)
 ****
 34  35 0
 6-311+G(2d,p)
 ****
 1  2  14  15  16  17  18  19  20  21  22  24  25  26 0
 3-21G
 ****
 31  33  36  37  38  39  40  41  42  43  44  45  46 0
 3-21G
 ****


