%nproc=1
%NoSave
%Mem=1900MB
#P OB98/GEN NMR

erre ene a

0 1
  C       70.054     -36.858     111.685
  O       70.008     -36.060     110.521
  H       71.068     -37.247     111.807
  H       69.368     -37.702     111.574
  H       69.789     -36.276     112.572
  P       68.753     -35.077     110.354
  C       68.625     -32.860     109.010
  O       69.010     -34.227     109.015
  C       69.628     -32.027     108.213
  O       70.883     -31.973     108.958
  C       69.939     -32.585     106.814
  O       70.122     -31.489     105.909
  C       71.281     -33.263     107.015
  O       72.011     -33.391     105.799
  C       71.925     -32.324     108.029
  N       76.935     -32.599     107.981
  C       76.077     -31.737     107.329
  N       76.631     -30.844     106.481
  N       74.780     -31.751     107.489
  C       74.359     -32.681     108.379
  C       75.102     -33.594     109.085
  C       76.537     -33.581     108.887
  O       77.346     -34.332     109.419
  N       74.294     -34.408     109.839
  C       73.065     -34.000     109.571
  N       73.054     -32.955     108.689
  O       68.985     -34.011     111.527
  O       67.414     -35.727     110.450
  H       71.429     -33.813     105.136
  H       68.481     -34.276     112.319
  H       77.924     -32.558     107.810
  H       72.161     -34.435     109.969
  H       72.300     -31.401     107.569
  H       71.136     -34.264     107.439
  H       77.623     -30.752     106.329
  H       69.172     -33.261     106.425
  H       76.017     -30.179     106.026
  H       69.253     -30.998     108.144
  H       68.594     -32.491     110.040
  H       67.624     -32.770     108.575
  P       68.832     -30.638     105.485
  C       68.374     -28.355     104.322
  O       69.310     -29.384     104.607
  O       68.374     -29.966     106.865
  O       67.737     -31.456     104.887
  H       67.402     -29.893     106.890
  H       68.846     -27.597     103.732
  H       68.024     -27.927     105.238
  H       67.547     -28.765     103.781

 6  7  8  9  10  11  12  13  14  15  26  29  33  34 0
 6-311+G(2d,p)
 ****
 36  38  39  40  41 0
 6-311+G(2d,p)
 ****
 1  2  3  4  5  16  17  18  19  20  21  22  23  24  25 0
 3-21G
 ****
 27  28  30  31  32  35  37  42  43  44  45  46  47 0
 3-21G
 ****
 48  49 0
 3-21G
 ****


