%nproc=1
%NoSave
%Mem=1900MB
#P OB98/GEN NMR

erre ene a

0 1
  C      103.909     -68.423    -592.774
  O      103.131     -69.598    -592.873
  H      104.839     -68.544    -593.334
  H      103.345     -67.586    -593.199
  H      104.131     -68.201    -591.725
  P      103.805     -70.945    -592.316
  C      105.867     -70.807    -593.878
  O      105.388     -70.797    -592.539
  C      107.234     -71.479    -593.946
  O      108.183     -70.635    -593.220
  C      107.280     -72.890    -593.334
  O      107.893     -73.810    -594.239
  C      108.173     -72.736    -592.112
  O      108.960     -73.894    -591.859
  C      109.030     -71.522    -592.468
  N      113.309     -70.070    -590.097
  C      113.061     -70.365    -591.397
  N      111.874     -70.646    -591.981
  C      110.872     -70.584    -591.088
  C      110.972     -70.274    -589.740
  C      112.259     -70.031    -589.236
  N      112.522     -69.787    -587.910
  N      109.726     -70.314    -589.137
  C      108.898     -70.679    -590.099
  N      109.549     -70.866    -591.290
  O      103.369     -72.046    -593.400
  O      103.372     -71.335    -590.940
  H      109.278     -73.833    -590.939
  H      102.834     -72.737    -592.958
  H      113.929     -70.374    -592.051
  H      107.833     -70.861    -589.977
  H      109.876     -71.798    -593.115
  H      107.546     -72.539    -591.230
  H      106.290     -73.258    -593.059
  H      107.565     -71.504    -594.994
  H      105.946     -69.774    -594.247
  H      113.484     -69.745    -587.618
  H      111.758     -69.864    -587.240
  H      105.145     -71.350    -594.511
  P      106.900     -74.807    -595.029
  C      107.811     -77.060    -594.099
  O      106.727     -76.134    -594.145
  O      107.772     -75.273    -596.283
  O      105.626     -74.152    -595.461
  H      107.307     -75.077    -597.119
  H      107.547     -77.887    -593.474
  H      108.678     -76.575    -593.701
  H      108.021     -77.412    -595.087

 6  7  8  9  10  11  12  13  14  15  25  28  32  33  34  35 0
 6-311+G(2d,p)
 ****
 36  39  40 0
 6-311+G(2d,p)
 ****
 1  2  3  4  5  16  17  18  19  20  21  22  23  24 0
 3-21G
 ****
 26  27  29  30  31  37  38  41  42  43  44  45  46  47  48 0
 3-21G
 ****


