%nproc=1
%NoSave
%Mem=1900MB
#P OB98/GEN NMR

erre ene a

0 1
  C     -154.122    -234.189     -50.743
  O     -153.879    -234.730     -52.029
  H     -153.892    -233.120     -50.761
  H     -153.477    -234.677     -50.007
  H     -155.172    -234.319     -50.465
  P     -154.377    -236.231     -52.275
  C     -156.742    -237.364     -52.371
  O     -155.944    -236.281     -51.912
  C     -157.808    -237.707     -51.334
  O     -157.214    -238.317     -50.172
  C     -158.544    -236.502     -50.773
  O     -159.448    -235.938     -51.698
  C     -159.224    -237.125     -49.561
  O     -160.458    -237.760     -49.915
  C     -158.179    -238.173     -49.102
  N     -157.561    -237.801     -47.843
  C     -157.868    -238.633     -46.757
  O     -158.599    -239.611     -46.916
  N     -157.367    -238.309     -45.521
  C     -156.651    -237.239     -45.375
  N     -156.215    -236.959     -44.117
  C     -156.307    -236.335     -46.491
  C     -156.791    -236.673     -47.688
  O     -153.697    -237.022     -51.063
  O     -154.058    -236.784     -53.622
  H     -160.230    -238.474     -50.544
  H     -153.828    -236.603     -50.198
  H     -155.696    -235.463     -46.320
  H     -156.588    -236.066     -48.562
  H     -158.652    -239.155     -48.974
  H     -159.459    -236.376     -48.802
  H     -157.825    -235.755     -50.413
  H     -158.506    -238.425     -51.785
  H     -156.521    -237.575     -43.372
  H     -156.118    -238.240     -52.578
  H     -155.719    -236.116     -43.871
  H     -157.209    -237.060     -53.313
  P     -159.934    -234.418     -51.566
  C     -158.903    -232.127     -52.141
  O     -158.645    -233.496     -51.844
  O     -160.666    -234.087     -50.309
  O     -160.795    -234.197     -52.899
  H     -160.305    -234.331     -53.730
  H     -157.977    -231.617     -52.306
  H     -159.418    -231.675     -51.319
  H     -159.508    -232.061     -53.021

 6  7  8  9  10  11  12  13  14  15  16  26  30  31  32  33  35 0
 6-311+G(2d,p)
 ****
 37  38 0
 6-311+G(2d,p)
 ****
 1  2  3  4  5  17  18  19  20  21  22  23  24  25 0
 3-21G
 ****
 27  28  29  34  36  39  40  41  42  43  44  45  46 0
 3-21G
 ****


