%nproc=1
%NoSave
%Mem=1900MB
#P OB98/GEN NMR

erre ene a

0 1
  C      174.895     439.295    -136.694
  O      173.804     439.710    -135.869
  P      173.228     438.670    -134.790
  C      171.963     437.235    -136.631
  O      171.946     437.919    -135.392
  C      170.643     436.469    -136.807
  O      170.558     435.411    -135.820
  C      169.405     437.340    -136.635
  O      169.039     437.979    -137.837
  C      168.381     436.337    -136.140
  O      167.883     435.547    -137.234
  C      169.250     435.471    -135.186
  N      169.416     435.915    -133.790
  C      168.296     436.197    -133.002
  O      167.136     436.107    -133.408
  N      168.547     436.597    -131.719
  C      169.758     436.566    -131.084
  O      169.911     436.875    -129.904
  C      170.888     436.117    -131.902
  C      170.674     435.835    -133.205
  O      172.608     439.620    -133.658
  O      174.238     437.723    -134.237
  H      167.360     436.142    -137.802
  H      173.096     439.496    -132.818
  H      167.746     436.863    -131.161
  H      171.852     436.052    -131.430
  H      171.499     435.508    -133.812
  H      168.851     434.453    -135.144
  H      167.514     436.836    -135.702
  H      169.571     438.079    -135.842
  H      170.642     436.011    -137.800
  H      172.811     436.546    -136.681
  H      172.091     437.965    -137.447
  P      169.786     439.324    -138.292
  C      167.526     440.547    -138.148
  O      168.643     440.244    -138.966
  O      171.020     439.144    -139.106
  O      170.066     440.079    -136.917
  H      170.988     439.896    -136.595
  H      166.911     441.290    -138.649
  H      167.857     440.942    -137.186
  H      166.918     439.644    -137.996
  H      175.164     440.091    -137.357
  H      174.604     438.438    -137.265
  H      175.733     439.045    -136.078

 3  4  5  6  7  8  9  10  11  12  13  23  28  29  30  31  32 0
 6-311+G(2d,p)
 ****
 33  34 0
 6-311+G(2d,p)
 ****
 1  2  14  15  16  17  18  19  20  21  22  24  25  26  27 0
 3-21G
 ****
 35  36  37  38  39  40  41  42  43  44  45 0
 3-21G
 ****


