%nproc=1
%NoSave
%Mem=1900MB
#P OB98/GEN NMR

erre ene a

0 1
  C       56.932     212.750      39.406
  O       56.049     211.767      39.909
  H       57.916     212.297      39.265
  H       57.026     213.579      40.113
  H       56.578     213.122      38.440
  P       54.542     212.192      40.242
  C       53.490     211.721      37.931
  O       53.909     212.710      38.862
  C       52.156     212.115      37.304
  O       51.138     212.225      38.316
  C       52.179     213.456      36.570
  O       52.721     213.304      35.269
  C       50.696     213.786      36.549
  O       50.039     213.000      35.535
  C       50.249     213.316      37.947
  N       48.870     218.005      39.311
  C       48.724     217.356      38.100
  N       48.158     218.069      37.103
  N       49.109     216.126      37.884
  C       49.723     215.561      38.949
  C       49.941     216.108      40.193
  C       49.448     217.447      40.441
  O       49.537     218.049      41.507
  N       50.677     215.267      40.989
  C       50.857     214.194      40.244
  N       50.305     214.324      38.992
  O       54.364     213.144      41.386
  O       53.786     210.805      40.491
  H       50.523     213.146      34.702
  H       53.797     210.563      41.435
  H       48.561     218.957      39.418
  H       51.375     213.297      40.561
  H       49.227     212.921      37.942
  H       50.497     214.834      36.324
  H       47.978     219.060      37.164
  H       52.705     214.221      37.150
  H       48.097     217.629      36.194
  H       51.850     211.304      36.628
  H       53.392     210.777      38.476
  H       54.242     211.594      37.145
  P       53.131     214.577      34.377
  C       55.693     214.366      34.670
  O       54.519     215.093      34.992
  O       52.078     215.621      34.254
  O       53.597     213.948      32.986
  H       52.845     213.785      32.365
  H       56.536     214.821      35.146
  H       55.836     214.371      33.610
  H       55.592     213.357      35.011

 6  7  8  9  10  11  12  13  14  15  26  29  33  34 0
 6-311+G(2d,p)
 ****
 36  38  39  40  41 0
 6-311+G(2d,p)
 ****
 1  2  3  4  5  16  17  18  19  20  21  22  23  24  25 0
 3-21G
 ****
 27  28  30  31  32  35  37  42  43  44  45  46  47 0
 3-21G
 ****
 48  49 0
 3-21G
 ****


