%nproc=1
%NoSave
%Mem=1900MB
#P OB98/GEN NMR

erre ene a

0 1
  C     -681.696     541.370    -553.336
  O     -682.244     542.356    -554.188
  P     -682.409     541.980    -555.736
  C     -684.670     540.681    -555.849
  O     -683.979     541.920    -556.045
  C     -686.150     540.856    -556.171
  O     -686.719     541.880    -555.331
  C     -686.449     541.297    -557.602
  O     -686.301     540.209    -558.506
  C     -687.874     541.805    -557.450
  O     -688.796     540.699    -557.420
  C     -687.829     542.487    -556.063
  N     -690.080     547.086    -556.080
  C     -690.581     545.833    -556.008
  N     -689.916     544.658    -556.029
  C     -688.597     544.866    -556.142
  C     -687.942     546.073    -556.234
  C     -688.733     547.234    -556.204
  N     -688.227     548.507    -556.281
  N     -686.576     545.890    -556.358
  C     -686.419     544.588    -556.307
  N     -687.605     543.912    -556.160
  O     -681.963     540.445    -555.794
  O     -681.612     542.833    -556.680
  H     -688.848     540.337    -558.333
  H     -681.511     540.245    -556.633
  H     -691.666     545.771    -555.917
  H     -685.467     544.068    -556.379
  H     -688.739     542.328    -555.491
  H     -688.179     542.473    -558.256
  H     -685.786     542.113    -557.902
  H     -686.660     539.903    -555.951
  H     -684.560     540.378    -554.803
  H     -688.864     549.275    -556.397
  H     -687.238     548.613    -556.511
  H     -684.211     539.917    -556.490
  P     -685.902     540.554    -560.027
  C     -683.438     540.530    -559.311
  O     -684.412     539.983    -560.181
  O     -685.668     542.145    -559.936
  O     -686.884     540.099    -561.048
  H     -685.095     542.380    -559.199
  H     -682.500     540.030    -559.483
  H     -683.742     540.392    -558.272
  H     -683.304     541.605    -559.525
  H     -681.643     541.751    -552.338
  H     -680.713     541.114    -553.673
  H     -682.317     540.499    -553.353

 3  4  5  6  7  8  9  10  11  12  22  25  29  30  31  32 0
 6-311+G(2d,p)
 ****
 33  36  37 0
 6-311+G(2d,p)
 ****
 1  2  13  14  15  16  17  18  19  20  21  23  24  26 0
 3-21G
 ****
 27  28  34  35  38  39  40  41  42  43  44  45  46  47  48 0
 3-21G
 ****


