%nproc=1
%NoSave
%Mem=1900MB
#P OB98/GEN NMR

erre ene a

0 1
  C       19.478     165.453     301.568
  O       19.786     164.340     300.751
  P       18.720     163.776     299.702
  C       19.602     165.269     297.821
  O       18.469     164.919     298.604
  C       19.401     164.897     296.351
  O       20.593     165.264     295.600
  C       19.138     163.409     296.094
  O       18.245     163.332     294.975
  C       20.508     162.892     295.684
  O       20.445     161.673     294.953
  C       21.021     164.084     294.885
  N       25.014     161.997     292.475
  C       23.694     161.725     292.421
  N       22.694     162.313     293.111
  C       23.174     163.266     293.929
  C       24.498     163.630     294.113
  C       25.449     162.957     293.326
  N       26.797     163.240     293.341
  N       24.598     164.611     295.082
  C       23.358     164.830     295.468
  N       22.460     164.090     294.751
  O       17.475     163.206     300.302
  O       19.527     162.662     298.889
  H       21.352     161.421     294.700
  H       19.236     161.768     299.166
  H       23.397     160.947     291.725
  H       23.057     165.514     296.254
  H       20.589     164.123     293.879
  H       21.118     162.721     296.580
  H       18.726     162.874     296.954
  H       18.577     165.509     295.956
  H       20.466     164.724     298.210
  H       27.368     162.795     292.642
  H       27.109     164.116     293.757
  H       19.804     166.344     297.915
  P       17.332     162.027     294.771
  C       15.217     163.169     295.665
  O       16.159     162.122     295.854
  O       18.068     160.732     294.734
  O       16.573     162.320     293.388
  H       16.212     161.482     293.033
  H       15.634     164.102     296.047
  H       14.304     162.929     296.216
  H       14.972     163.283     294.606
  H       20.314     165.675     302.198
  H       18.626     165.226     302.174
  H       19.261     166.300     300.951

 3  4  5  6  7  8  9  10  11  12  22  25  29  30  31  32 0
 6-311+G(2d,p)
 ****
 33  36  37 0
 6-311+G(2d,p)
 ****
 1  2  13  14  15  16  17  18  19  20  21  23  24  26 0
 3-21G
 ****
 27  28  34  35  38  39  40  41  42  43  44  45  46  47  48 0
 3-21G
 ****


