%nproc=1
%NoSave
%Mem=1900MB
#P OB98/GEN NMR

erre ene a

0 1
  C       66.510     -66.111      27.735
  O       67.881     -65.742      27.773
  P       68.970     -66.912      27.618
  C       69.704     -66.962      30.099
  O       69.050     -67.654      29.041
  C       69.953     -67.894      31.281
  O       68.673     -68.279      31.856
  C       70.705     -69.186      30.923
  O       71.700     -69.449      31.924
  C       69.639     -70.263      31.039
  O       70.199     -71.541      31.318
  C       68.783     -69.685      32.166
  N       66.196     -73.477      34.276
  C       67.469     -73.016      34.552
  N       68.170     -73.702      35.484
  N       68.010     -71.980      33.967
  C       67.183     -71.373      33.080
  C       65.900     -71.730      32.728
  C       65.339     -72.916      33.341
  O       64.252     -73.427      33.073
  N       65.376     -70.859      31.805
  C       66.338     -69.981      31.596
  N       67.473     -70.278      32.308
  O       70.350     -66.102      27.533
  O       68.791     -67.799      26.434
  H       70.782     -71.767      30.569
  H       70.823     -66.343      26.714
  H       65.836     -74.294      34.745
  H       66.272     -69.139      30.915
  H       69.300     -69.780      33.131
  H       69.081     -70.321      30.098
  H       67.800     -74.487      35.999
  H       71.172     -69.174      29.934
  H       69.096     -73.364      35.718
  H       70.492     -67.334      32.058
  H       69.075     -66.127      30.426
  H       70.655     -66.564      29.729
  P       73.208     -69.603      31.392
  C       73.113     -72.198      31.144
  O       73.224     -70.939      30.507
  O       74.026     -70.010      32.711
  O       73.750     -68.374      30.740
  H       74.965     -69.763      32.620
  H       72.860     -72.102      32.206
  H       74.063     -72.728      31.054
  H       72.333     -72.780      30.649
  H       65.902     -65.238      27.849
  H       66.303     -66.796      28.530
  H       66.292     -66.577      26.797

 3  4  5  6  7  8  9  10  11  12  23  26  30  31  33  0
 6-311+G(2d,p)
 ****
 35  36  37  38 0
 6-311+G(2d,p)
 ****
 1  2  13  14  15  16  17  18  19  20  21  22  24  25  27  28  29 0
 3-21G
 ****
 32  34  39  40  41  42  43  44  45  46  47  48  49 0
 3-21G
 ****


