%nproc=1
%NoSave
%Mem=1900MB
#P OB98/GEN NMR

erre ene a

0 1
  C     -299.519    -708.380    -339.691
  O     -299.840    -707.947    -338.381
  H     -299.802    -707.593    -340.397
  H     -300.072    -709.285    -339.929
  H     -298.440    -708.565    -339.776
  P     -299.426    -708.913    -337.173
  C     -300.155    -708.957    -334.682
  O     -300.543    -708.731    -336.030
  C     -301.265    -708.511    -333.728
  O     -301.196    -707.061    -333.553
  C     -302.692    -708.857    -334.195
  O     -303.484    -709.172    -333.044
  C     -303.191    -707.535    -334.771
  O     -304.618    -707.459    -334.812
  C     -302.536    -706.563    -333.785
  N     -305.445    -702.595    -334.917
  C     -305.767    -703.825    -334.349
  N     -307.072    -704.029    -334.043
  N     -304.898    -704.768    -334.124
  C     -303.618    -704.416    -334.437
  C     -303.154    -703.239    -334.997
  C     -304.158    -702.211    -335.282
  O     -303.929    -701.118    -335.791
  N     -301.808    -703.284    -335.200
  C     -301.445    -704.473    -334.771
  N     -302.511    -705.198    -334.303
  O     -298.137    -708.184    -336.564
  O     -299.127    -710.330    -337.553
  H     -304.863    -706.517    -334.940
  H     -297.321    -708.539    -336.956
  H     -306.152    -701.913    -335.076
  H     -300.426    -704.872    -334.772
  H     -303.055    -706.521    -332.823
  H     -302.799    -707.387    -335.779
  H     -307.799    -703.334    -334.155
  H     -302.742    -709.681    -334.917
  H     -307.326    -704.908    -333.605
  H     -301.076    -708.963    -332.735
  H     -299.251    -708.376    -334.467
  H     -299.942    -710.027    -334.539
  P     -303.852    -710.713    -332.772
  C     -304.517    -711.946    -330.573
  O     -304.683    -710.801    -331.399
  O     -302.435    -711.359    -332.377
  O     -304.471    -711.416    -333.953
  H     -302.420    -712.317    -332.612
  H     -305.134    -711.852    -329.704
  H     -303.492    -712.026    -330.275
  H     -304.799    -712.823    -331.118

 6  7  8  9  10  11  12  13  14  15  26  29  33  34 0
 6-311+G(2d,p)
 ****
 36  38  39  40  41 0
 6-311+G(2d,p)
 ****
 1  2  3  4  5  16  17  18  19  20  21  22  23  24  25 0
 3-21G
 ****
 27  28  30  31  32  35  37  42  43  44  45  46  47 0
 3-21G
 ****
 48  49 0
 3-21G
 ****


