%nproc=1
%NoSave
%Mem=1900MB
#P OB98/GEN NMR

erre ene a

0 1
  C      435.269      52.600    -367.435
  O      435.444      53.481    -366.329
  P      434.146      53.984    -365.534
  C      434.705      53.057    -363.116
  O      433.886      53.042    -364.269
  C      433.963      52.367    -361.962
  O      432.863      53.187    -361.500
  C      433.373      51.010    -362.352
  O      434.305      49.963    -362.201
  C      432.184      50.904    -361.409
  O      432.625      50.525    -360.089
  C      431.666      52.362    -361.409
  N      430.723      52.766    -362.478
  C      429.406      52.332    -362.435
  O      428.937      51.610    -361.555
  N      428.592      52.764    -363.452
  C      428.907      53.702    -364.388
  O      428.123      54.103    -365.243
  C      430.268      54.249    -364.301
  C      431.099      53.756    -363.378
  O      432.937      53.636    -366.523
  O      434.170      55.435    -365.166
  H      432.930      49.604    -360.145
  H      432.496      54.452    -366.825
  H      427.650      52.405    -363.477
  H      430.546      55.029    -364.995
  H      432.112      54.152    -363.306
  H      431.184      52.599    -360.455
  H      431.494      50.128    -361.735
  H      432.983      51.048    -363.376
  H      434.655      52.239    -361.125
  H      434.958      54.081    -362.832
  H      435.640      52.541    -363.324
  P      435.009      49.323    -363.489
  C      437.219      50.444    -362.839
  O      436.237      50.293    -363.847
  O      434.101      48.994    -364.634
  O      435.749      48.028    -362.916
  H      435.192      47.220    -363.046
  H      438.074      50.996    -363.253
  H      437.567      49.465    -362.493
  H      436.812      51.012    -361.999
  H      436.224      52.360    -367.854
  H      434.663      53.076    -368.178
  H      434.789      51.703    -367.104

 3  4  5  6  7  8  9  10  11  12  13  23  28  29  30  31  32 0
 6-311+G(2d,p)
 ****
 33  34 0
 6-311+G(2d,p)
 ****
 1  2  14  15  16  17  18  19  20  21  22  24  25  26  27 0
 3-21G
 ****
 35  36  37  38  39  40  41  42  43  44  45 0
 3-21G
 ****


