%nproc=1
%NoSave
%Mem=1900MB
#P OB98/GEN NMR

erre ene a

0 1
  C     -183.962      46.429     -16.659
  O     -183.781      46.613     -15.264
  P     -184.448      47.900     -14.585
  C     -182.223      48.681     -13.478
  O     -183.570      48.270     -13.300
  C     -181.500      48.688     -12.128
  O     -181.907      49.834     -11.347
  C     -181.809      47.476     -11.260
  O     -181.070      46.338     -11.682
  C     -181.425      47.978      -9.878
  O     -180.010      47.843      -9.659
  C     -181.827      49.465      -9.955
  N     -183.069      49.746      -9.247
  C     -182.937      50.410      -8.032
  O     -181.846      50.726      -7.554
  N     -184.104      50.664      -7.357
  C     -185.357      50.277      -7.746
  O     -186.360      50.486      -7.069
  C     -185.432      49.556      -9.027
  C     -184.301      49.318      -9.702
  O     -185.817      47.339     -13.965
  O     -184.691      49.039     -15.520
  H     -179.568      48.382     -10.340
  H     -186.516      48.017     -14.036
  H     -184.034      51.166      -6.487
  H     -186.406      49.228      -9.364
  H     -184.335      48.774     -10.639
  H     -181.035      50.091      -9.522
  H     -181.926      47.418      -9.085
  H     -182.889      47.266     -11.282
  H     -180.421      48.765     -12.312
  H     -182.205      49.686     -13.913
  H     -181.728      47.996     -14.173
  P     -181.774      44.905     -11.514
  C     -179.430      43.849     -11.051
  O     -180.623      43.834     -11.808
  O     -182.716      44.883     -12.814
  O     -182.505      44.762     -10.220
  H     -182.313      45.357     -13.560
  H     -179.616      44.140     -10.011
  H     -178.728      44.556     -11.503
  H     -178.991      42.850     -11.069
  H     -183.464      45.534     -16.968
  H     -183.552      47.266     -17.185
  H     -185.007      46.348     -16.876

 3  4  5  6  7  8  9  10  11  12  13  23  28  29  30  31  32 0
 6-311+G(2d,p)
 ****
 33  34 0
 6-311+G(2d,p)
 ****
 1  2  14  15  16  17  18  19  20  21  22  24  25  26 0
 3-21G
 ****
 27  35  36  37  38  39  40  41  42  43  44  45 0
 3-21G
 ****


