%nproc=1
%NoSave
%Mem=1900MB
#P OB98/GEN NMR

erre ene a

0 1
  C     -118.485      13.581     119.508
  O     -117.496      12.657     119.103
  H     -119.438      13.055     119.608
  H     -118.592      14.356     118.745
  H     -118.228      14.035     120.469
  P     -115.964      13.101     119.272
  C     -114.169      14.100     117.686
  O     -115.548      13.844     117.910
  C     -113.990      15.079     116.526
  O     -114.201      14.359     115.273
  C     -114.966      16.269     116.551
  O     -114.284      17.435     116.073
  C     -116.005      15.871     115.519
  O     -116.697      16.995     114.987
  C     -115.132      15.141     114.504
  N     -117.380      15.126     110.017
  C     -116.485      16.020     110.568
  N     -116.182      17.116     109.841
  N     -115.933      15.856     111.742
  C     -116.307      14.708     112.357
  C     -117.185      13.747     111.921
  C     -117.805      13.947     110.627
  O     -118.620      13.203     110.094
  N     -117.346      12.764     112.866
  C     -116.582      13.144     113.877
  N     -115.933      14.318     113.615
  O     -115.185      11.704     119.192
  O     -115.648      13.843     120.527
  H     -116.035      17.669     114.731
  H     -115.028      11.361     120.092
  H     -117.789      15.307     109.116
  H     -116.481      12.620     114.816
  H     -114.560      15.832     113.869
  H     -116.740      15.191     115.969
  H     -116.543      17.295     108.916
  H     -115.397      16.469     117.537
  H     -115.496      17.759     110.215
  H     -112.951      15.431     116.521
  H     -113.664      13.160     117.439
  H     -113.725      14.507     118.600
  P     -113.921      18.583     117.132
  C     -115.229      20.031     118.854
  O     -115.285      19.208     117.698
  O     -113.336      19.753     116.210
  O     -112.934      18.159     118.170
  H     -112.630      20.228     116.687
  H     -116.215      20.366     119.101
  H     -114.603      20.877     118.660
  H     -114.827      19.470     119.672

 6  7  8  9  10  11  12  13  14  15  26  29  33  34 0
 6-311+G(2d,p)
 ****
 36  38  39  40  41 0
 6-311+G(2d,p)
 ****
 1  2  3  4  5  16  17  18  19  20  21  22  23  24  25 0
 3-21G
 ****
 27  28  30  31  32  35  37  42  43  44  45  46  47 0
 3-21G
 ****
 48  49 0
 3-21G
 ****


