%nproc=1
%NoSave
%Mem=1900MB
#P OB98/GEN NMR

erre ene a

0 1
  C     -109.678    -191.714     313.041
  O     -109.373    -190.337     313.291
  P     -109.299    -189.879     314.832
  C     -111.662    -188.798     314.817
  O     -110.806    -189.773     315.397
  C     -112.470    -188.047     315.891
  O     -113.284    -188.975     316.661
  C     -111.595    -187.281     316.888
  O     -112.316    -186.104     317.279
  C     -111.530    -188.224     318.082
  O     -111.156    -187.538     319.276
  C     -112.949    -188.799     318.054
  N     -111.637    -191.233     322.355
  C     -111.390    -189.983     321.912
  N     -111.761    -189.410     320.740
  C     -112.485    -190.278     320.007
  C     -112.813    -191.587     320.320
  C     -112.355    -192.074     321.562
  N     -112.576    -193.359     321.994
  N     -113.536    -192.170     319.292
  C     -113.639    -191.222     318.373
  N     -113.051    -190.053     318.775
  O     -108.829    -188.350     314.735
  O     -108.358    -190.693     315.661
  H     -111.311    -188.142     320.034
  H     -107.902    -188.271     315.032
  H     -110.818    -189.350     322.589
  H     -114.116    -191.333     317.413
  H     -113.686    -188.108     318.494
  H     -110.790    -189.013     317.888
  H     -110.605    -187.006     316.514
  H     -113.148    -187.351     315.384
  H     -112.349    -189.276     314.117
  H     -112.187    -193.640     322.880
  H     -113.065    -194.007     321.395
  H     -111.059    -188.106     314.217
  P     -111.525    -184.711     317.157
  C     -110.939    -184.397     319.664
  O     -110.469    -184.688     318.363
  O     -112.620    -183.617     317.583
  O     -110.971    -184.438     315.790
  H     -112.408    -182.750     317.183
  H     -110.417    -185.054     320.381
  H     -112.016    -184.553     319.764
  H     -110.700    -183.358     319.909
  H     -109.698    -191.889     311.986
  H     -110.634    -191.949     313.459
  H     -108.930    -192.332     313.491

 3  4  5  6  7  8  9  10  11  12  22  25  29  30  31  32 0
 6-311+G(2d,p)
 ****
 33  36  37 0
 6-311+G(2d,p)
 ****
 1  2  13  14  15  16  17  18  19  20  21  23  24  26 0
 3-21G
 ****
 27  28  34  35  38  39  40  41  42  43  44  45  46  47  48 0
 3-21G
 ****


