%nproc=1
%NoSave
%Mem=1900MB
#P OB98/GEN NMR

erre ene a

0 1
  C     -764.223     904.132    -668.235
  O     -764.375     904.183    -666.827
  P     -763.392     903.376    -665.873
  C     -764.235     905.053    -664.122
  O     -763.852     903.710    -664.371
  C     -765.069     905.134    -662.833
  O     -764.373     904.497    -661.717
  C     -765.330     906.548    -662.353
  O     -766.158     907.383    -663.169
  C     -765.793     906.295    -660.915
  O     -767.169     905.933    -660.885
  C     -764.892     905.109    -660.499
  N     -763.818     905.531    -659.606
  C     -763.451     904.615    -658.627
  O     -763.996     903.518    -658.492
  N     -762.475     905.008    -657.772
  C     -761.846     906.242    -657.760
  O     -761.003     906.547    -656.945
  C     -762.271     907.167    -658.832
  C     -763.223     906.794    -659.689
  O     -761.919     903.567    -666.128
  O     -763.879     901.855    -666.033
  H     -767.266     905.080    -661.374
  H     -764.806     901.697    -665.781
  H     -762.213     904.367    -657.041
  H     -761.792     908.133    -658.867
  H     -763.550     907.451    -660.481
  H     -765.483     904.332    -660.009
  H     -765.685     907.196    -660.299
  H     -764.365     907.085    -662.287
  H     -765.996     904.578    -662.986
  H     -764.858     905.410    -664.962
  H     -763.340     905.692    -664.063
  P     -766.268     908.964    -662.970
  C     -765.566     909.747    -665.343
  O     -766.612     909.618    -664.392
  O     -765.200     909.606    -662.143
  O     -767.666     909.097    -662.195
  H     -767.648     909.872    -661.616
  H     -765.968     910.263    -666.213
  H     -765.209     908.736    -665.643
  H     -764.737     910.335    -664.949
  H     -764.975     904.737    -668.697
  H     -764.324     903.120    -668.568
  H     -763.255     904.500    -668.503

 3  4  5  6  7  8  9  10  11  12  13  23  28  29  30  31  32 0
 6-311+G(2d,p)
 ****
 33  34 0
 6-311+G(2d,p)
 ****
 1  2  14  15  16  17  18  19  20  21  22  24  25  26  27 0
 3-21G
 ****
 35  36  37  38  39  40  41  42  43  44  45 0
 3-21G
 ****


