%nproc=1
%NoSave
%Mem=1900MB
#P OB98/GEN NMR

erre ene a

0 1
  C      274.287     650.687     -58.419
  O      274.439     651.301     -59.694
  P      273.307     652.315     -60.178
  C      272.151     651.220     -62.236
  O      273.151     652.113     -61.766
  C      272.122     651.188     -63.771
  O      271.576     652.456     -64.246
  C      273.489     650.990     -64.434
  O      273.260     650.216     -65.609
  C      273.876     652.420     -64.780
  O      274.909     652.511     -65.741
  C      272.519     652.976     -65.192
  N      274.504     657.199     -67.319
  C      274.691     655.881     -67.576
  N      274.126     654.812     -66.971
  C      273.276     655.224     -66.010
  C      272.997     656.508     -65.617
  C      273.652     657.545     -66.324
  N      273.465     658.875     -66.054
  N      272.074     656.527     -64.584
  C      271.821     655.256     -64.357
  N      272.500     654.422     -65.204
  O      274.005     653.746     -60.061
  O      272.020     652.255     -59.400
  H      275.086     653.435     -65.978
  H      273.385     654.417     -59.738
  H      275.413     655.661     -68.371
  H      271.165     654.897     -63.582
  H      272.222     652.643     -66.194
  H      274.240     652.915     -63.873
  H      274.205     650.466     -63.793
  H      271.419     650.398     -64.084
  H      271.171     651.552     -61.873
  H      274.125     659.524     -66.462
  H      272.982     659.112     -65.182
  H      272.335     650.220     -61.831
  P      273.768     648.694     -65.667
  C      275.086     648.864     -67.857
  O      273.913     648.388     -67.233
  O      272.424     647.906     -65.302
  O      274.929     648.381     -64.784
  H      271.674     648.191     -65.863
  H      275.118     648.505     -68.896
  H      275.984     648.494     -67.336
  H      275.090     649.959     -67.879
  H      275.118     650.038     -58.234
  H      273.380     650.119     -58.402
  H      274.249     651.442     -57.662

 3  4  5  6  7  8  9  10  11  12  22  25  29  30  31  32 0
 6-311+G(2d,p)
 ****
 33  36  37 0
 6-311+G(2d,p)
 ****
 1  2  13  14  15  16  17  18  19  20  21  23  24  26 0
 3-21G
 ****
 27  28  34  35  38  39  40  41  42  43  44  45  46  47  48 0
 3-21G
 ****


