%nproc=1
%NoSave
%Mem=1900MB
#P OB98/GEN NMR

erre ene a

0 1
  C      348.924     570.609    -234.187
  O      348.571     571.627    -235.109
  P      349.648     572.800    -235.365
  C      348.117     574.841    -234.920
  O      348.818     574.069    -235.882
  C      347.032     575.708    -235.583
  O      347.677     576.629    -236.508
  C      345.988     574.905    -236.363
  O      344.722     575.555    -236.189
  C      346.426     575.068    -237.809
  O      345.331     574.888    -238.709
  C      347.031     576.476    -237.787
  N      347.962     576.700    -238.883
  C      347.842     575.867    -240.004
  O      347.028     574.945    -240.003
  N      348.683     576.074    -241.076
  C      349.634     576.942    -240.984
  N      350.438     577.113    -242.072
  C      349.873     577.764    -239.770
  C      348.996     577.599    -238.781
  O      350.411     572.291    -236.676
  O      350.576     573.041    -234.223
  H      344.878     574.041    -238.487
  H      351.345     572.580    -236.674
  H      350.700     578.453    -239.742
  H      349.083     578.174    -237.855
  H      346.230     577.243    -237.849
  H      347.195     574.326    -238.049
  H      345.908     573.863    -236.036
  H      346.554     576.314    -234.805
  H      350.261     576.530    -242.883
  H      348.814     575.515    -234.416
  H      351.205     577.777    -242.090
  H      347.667     574.182    -234.168
  P      343.950     575.324    -234.804
  C      342.151     573.973    -236.054
  O      342.416     575.082    -235.220
  O      343.890     576.811    -234.213
  O      344.537     574.376    -233.811
  H      343.493     576.797    -233.322
  H      341.067     573.846    -236.143
  H      342.581     573.057    -235.633
  H      342.565     574.146    -237.057
  H      348.125     569.901    -234.114
  H      349.104     571.045    -233.226
  H      349.810     570.113    -234.525

 3  4  5  6  7  8  9  10  11  12  13  21  23  27  28  29  30  32 0
 6-311+G(2d,p)
 ****
 34  35 0
 6-311+G(2d,p)
 ****
 1  2  14  15  16  17  18  19  20  22  24  25  26 0
 3-21G
 ****
 31  33  36  37  38  39  40  41  42  43  44  45  46 0
 3-21G
 ****


