%nproc=1
%NoSave
%Mem=1900MB
#P OB98/GEN NMR

erre ene a

0 1
  C      423.003    -298.136     113.331
  O      421.738    -297.519     113.482
  P      421.547    -295.979     113.079
  C      419.144    -295.855     112.170
  O      420.003    -295.609     113.282
  C      417.704    -295.481     112.517
  O      417.175    -296.389     113.514
  C      417.544    -294.087     113.108
  O      417.635    -293.097     112.097
  C      416.185    -294.198     113.776
  O      415.130    -294.019     112.814
  C      416.197    -295.656     114.282
  N      414.166    -295.920     118.954
  C      413.615    -295.667     117.744
  N      414.237    -295.573     116.546
  C      415.556    -295.750     116.687
  C      416.266    -295.979     117.855
  C      415.502    -296.086     119.039
  N      416.044    -296.411     120.269
  N      417.616    -296.074     117.594
  C      417.722    -295.896     116.289
  N      416.502    -295.754     115.693
  O      422.123    -295.595     111.754
  O      422.268    -295.186     114.265
  H      415.042    -294.861     112.322
  H      423.003    -294.653     113.899
  H      412.534    -295.528     117.742
  H      418.654    -295.868     115.740
  H      415.235    -296.148     114.118
  H      416.035    -293.454     114.568
  H      418.311    -293.916     113.880
  H      417.093    -295.592     111.607
  H      419.206    -296.914     111.917
  H      415.395    -296.605     121.008
  H      416.972    -296.830     120.288
  H      419.494    -295.270     111.308
  P      418.932    -292.167     112.009
  C      419.539    -292.072     109.512
  O      418.881    -291.423     110.592
  O      420.234    -292.835     112.326
  O      418.625    -290.984     113.041
  H      419.459    -290.674     113.441
  H      420.616    -291.910     109.592
  H      419.177    -291.647     108.572
  H      419.329    -293.150     109.518
  H      422.942    -299.156     113.647
  H      423.725    -297.620     113.928
  H      423.298    -298.098     112.303

 3  4  5  6  7  8  9  10  11  12  22  25  29  30  31  32 0
 6-311+G(2d,p)
 ****
 33  36  37 0
 6-311+G(2d,p)
 ****
 1  2  13  14  15  16  17  18  19  20  21  23  24  26 0
 3-21G
 ****
 27  28  34  35  38  39  40  41  42  43  44  45  46  47  48 0
 3-21G
 ****


