%nproc=1
%NoSave
%Mem=1900MB
#P OB98/GEN NMR

erre ene a

0 1
  C      -78.877      51.871      -1.653
  O      -77.465      51.788      -1.874
  P      -76.421      51.720      -0.657
  C      -74.254      50.531      -1.355
  O      -74.910      51.787      -1.206
  C      -74.378      49.948      -2.769
  O      -73.966      50.919      -3.771
  C      -73.552      48.679      -3.021
  O      -74.289      47.910      -3.977
  C      -72.288      49.241      -3.649
  O      -71.531      48.276      -4.364
  C      -72.876      50.345      -4.521
  N      -68.869      51.478      -7.503
  C      -69.744      50.449      -7.528
  N      -70.807      50.236      -6.725
  C      -70.955      51.244      -5.846
  C      -70.147      52.360      -5.708
  C      -69.049      52.455      -6.583
  N      -68.127      53.475      -6.531
  N      -70.592      53.162      -4.673
  C      -71.645      52.529      -4.193
  N      -71.906      51.365      -4.870
  O      -76.668      50.598       0.300
  O      -76.600      53.124       0.094
  H      -70.831      48.740      -4.858
  H      -76.650      52.968       1.056
  H      -69.565      49.694      -8.288
  H      -72.238      52.855      -3.348
  H      -73.290      49.941      -5.453
  H      -71.643      49.647      -2.860
  H      -73.357      48.097      -2.117
  H      -75.442      49.748      -2.949
  H      -74.686      49.827      -0.634
  H      -67.323      53.406      -7.135
  H      -68.170      54.140      -5.774
  H      -73.194      50.658      -1.102
  P      -74.877      46.464      -3.620
  C      -76.941      47.076      -5.001
  O      -75.937      46.105      -4.762
  O      -75.386      46.319      -2.224
  O      -73.665      45.453      -3.910
  H      -73.827      44.612      -3.444
  H      -77.693      47.031      -4.207
  H      -77.420      46.865      -5.960
  H      -76.511      48.083      -5.035
  H      -79.384      51.906      -2.595
  H      -79.099      52.757      -1.095
  H      -79.203      51.013      -1.104

 3  4  5  6  7  8  9  10  11  12  22  25  29  30  31  32 0
 6-311+G(2d,p)
 ****
 33  36  37 0
 6-311+G(2d,p)
 ****
 1  2  13  14  15  16  17  18  19  20  21  23  24  26 0
 3-21G
 ****
 27  28  34  35  38  39  40  41  42  43  44  45  46  47  48 0
 3-21G
 ****


