%nproc=1
%NoSave
%Mem=1900MB
#P OB98/GEN NMR

erre ene a

0 1
  C      118.030     367.229     190.717
  O      117.378     367.481     189.462
  P      116.228     366.513     188.892
  C      115.898     363.987     188.501
  O      116.837     365.037     188.713
  C      116.374     363.004     187.421
  O      116.246     363.588     186.108
  C      117.838     362.584     187.549
  O      117.981     361.592     188.556
  C      118.134     362.106     186.131
  O      117.654     360.769     185.937
  C      117.323     363.101     185.290
  N      121.130     364.416     182.134
  C      120.534     363.228     182.386
  N      119.530     362.953     183.247
  C      119.122     364.081     183.865
  C      119.637     365.360     183.712
  C      120.694     365.513     182.800
  N      121.306     366.719     182.552
  N      118.977     366.250     184.533
  C      118.073     365.526     185.159
  N      118.120     364.210     184.787
  O      115.534     367.036     187.675
  O      115.200     366.346     190.109
  H      118.036     360.215     186.641
  H      114.304     366.170     189.758
  H      120.923     362.382     181.826
  H      117.358     365.907     185.884
  H      116.861     362.609     184.424
  H      119.207     362.105     185.905
  H      118.460     363.455     187.784
  H      115.722     362.127     187.456
  H      114.941     364.433     188.197
  H      122.079     366.737     181.904
  H      121.015     367.532     183.079
  H      115.753     363.454     189.449
  P      118.726     361.949     189.933
  C      121.142     362.056     190.781
  O      120.298     361.762     189.682
  O      118.187     361.274     191.148
  O      118.574     363.543     190.046
  H      118.557     363.802     190.981
  H      121.287     363.136     190.854
  H      122.117     361.582     190.609
  H      120.723     361.672     191.712
  H      118.757     367.992     190.901
  H      118.515     366.276     190.682
  H      117.304     367.231     191.503

 3  4  5  6  7  8  9  10  11  12  22  25  29  30  31  32 0
 6-311+G(2d,p)
 ****
 33  36  37 0
 6-311+G(2d,p)
 ****
 1  2  13  14  15  16  17  18  19  20  21  23  24  26 0
 3-21G
 ****
 27  28  34  35  38  39  40  41  42  43  44  45  46  47  48 0
 3-21G
 ****


