%nproc=1
%NoSave
%Mem=1900MB
#P OB98/GEN NMR

erre ene a

0 1
  C      -60.762     120.028    -191.040
  O      -61.031     120.540    -192.328
  H      -59.724     119.686    -191.009
  H      -61.419     119.182    -190.829
  H      -60.899     120.806    -190.285
  P      -62.504     121.127    -192.592
  C      -64.753     120.036    -193.319
  O      -63.346     119.884    -193.170
  C      -65.398     118.697    -193.691
  O      -64.780     118.194    -194.901
  C      -65.246     117.629    -192.607
  O      -66.480     116.926    -192.463
  C      -64.163     116.711    -193.141
  O      -64.273     115.386    -192.623
  C      -64.351     116.842    -194.658
  N      -63.122     116.534    -195.387
  C      -63.001     115.241    -195.907
  O      -63.902     114.419    -195.728
  N      -61.850     114.895    -196.564
  C      -60.874     115.745    -196.644
  N      -59.749     115.333    -197.287
  C      -60.937     117.104    -196.068
  C      -62.078     117.430    -195.468
  O      -62.292     122.066    -193.867
  O      -63.132     121.815    -191.427
  H      -65.136     115.015    -192.917
  H      -63.069     122.659    -194.012
  H      -60.090     117.769    -196.147
  H      -62.214     118.407    -195.015
  H      -65.144     116.167    -195.010
  H      -63.179     117.102    -192.853
  H      -64.961     118.042    -191.641
  H      -66.452     118.876    -193.930
  H      -59.739     114.393    -197.659
  H      -64.948     120.772    -194.105
  H      -58.919     115.900    -197.383
  H      -65.177     120.397    -192.376
  P      -67.454     117.450    -191.296
  C      -68.427     116.317    -189.176
  O      -67.324     116.428    -190.063
  O      -68.918     117.168    -191.878
  O      -67.246     118.886    -190.945
  H      -69.299     117.988    -192.249
  H      -68.199     115.605    -188.410
  H      -69.290     115.992    -189.719
  H      -68.624     117.270    -188.730

 6  7  8  9  10  11  12  13  14  15  16  26  30  31  32  33  35 0
 6-311+G(2d,p)
 ****
 37  38 0
 6-311+G(2d,p)
 ****
 1  2  3  4  5  17  18  19  20  21  22  23  24  25 0
 3-21G
 ****
 27  28  29  34  36  39  40  41  42  43  44  45  46 0
 3-21G
 ****


