%nproc=1
%NoSave
%Mem=1900MB
#P OB98/GEN NMR

erre ene a

0 1
  C     -284.938    -385.287      20.464
  O     -285.030    -386.711      20.595
  P     -285.979    -387.427      21.673
  C     -287.041    -389.759      21.376
  O     -285.835    -389.015      21.532
  C     -286.767    -391.200      20.939
  O     -286.570    -391.266      19.512
  C     -285.520    -391.829      21.550
  O     -285.745    -392.202      22.897
  C     -285.276    -392.990      20.593
  O     -286.108    -394.115      20.927
  C     -285.699    -392.383      19.241
  N     -284.558    -391.981      18.425
  C     -284.505    -392.495      17.128
  O     -285.364    -393.287      16.732
  N     -283.469    -392.115      16.311
  C     -282.526    -391.354      16.775
  N     -281.528    -391.003      15.920
  C     -282.493    -390.867      18.167
  C     -283.532    -391.215      18.928
  O     -287.392    -386.937      21.656
  O     -285.298    -387.116      23.092
  H     -287.031    -393.794      20.902
  H     -285.995    -387.068      23.775
  H     -281.677    -390.261      18.523
  H     -283.589    -390.894      19.960
  H     -286.297    -393.101      18.667
  H     -284.241    -393.337      20.609
  H     -284.681    -391.124      21.486
  H     -287.655    -391.798      21.182
  H     -281.583    -391.351      14.969
  H     -287.656    -389.259      20.615
  H     -280.749    -390.417      16.180
  H     -287.588    -389.747      22.326
  P     -285.684    -391.096      24.053
  C     -287.125    -390.595      26.117
  O     -286.615    -391.594      25.254
  O     -285.913    -389.687      23.611
  O     -284.207    -391.264      24.663
  H     -283.892    -390.399      24.978
  H     -288.020    -390.981      26.611
  H     -287.380    -389.691      25.562
  H     -286.375    -390.355      26.876
  H     -284.247    -385.044      19.684
  H     -284.597    -384.865      21.386
  H     -285.901    -384.888      20.224

 3  4  5  6  7  8  9  10  11  12  13  23  27  28  29  30  32 0
 6-311+G(2d,p)
 ****
 34  35 0
 6-311+G(2d,p)
 ****
 1  2  14  15  16  17  18  19  20  21  22  24  25  26 0
 3-21G
 ****
 31  33  36  37  38  39  40  41  42  43  44  45  46 0
 3-21G
 ****


