%nproc=1
%NoSave
%Mem=1900MB
#P OB98/GEN NMR

erre ene a

0 1
  C       95.038    -277.430    -180.990
  O       94.162    -277.153    -179.917
  H       94.444    -277.698    -181.868
  H       95.698    -278.267    -180.743
  H       95.636    -276.544    -181.235
  P       94.786    -276.794    -178.486
  C       95.930    -278.173    -176.625
  O       95.630    -278.079    -178.016
  C       95.813    -279.631    -176.161
  O       94.437    -280.051    -176.363
  C       96.732    -280.576    -176.959
  O       97.568    -281.380    -176.121
  C       95.764    -281.301    -177.889
  O       96.192    -282.579    -178.303
  C       94.449    -281.293    -177.095
  N       93.254    -281.402    -177.929
  C       92.505    -282.576    -177.820
  O       92.752    -283.508    -177.052
  N       91.400    -282.648    -178.628
  C       90.997    -281.704    -179.526
  O       89.991    -281.827    -180.220
  C       91.841    -280.506    -179.617
  C       92.911    -280.407    -178.827
  O       93.821    -276.272    -177.470
  O       95.928    -275.720    -178.818
  H       95.543    -282.915    -178.954
  H       95.610    -274.825    -178.596
  H       90.844    -283.487    -178.547
  H       91.553    -279.738    -180.325
  H       93.559    -279.536    -178.872
  H       94.428    -282.112    -176.376
  H       95.644    -280.694    -178.791
  H       97.453    -280.009    -177.562
  H       96.015    -279.675    -175.083
  H       95.217    -277.543    -176.084
  H       96.948    -277.805    -176.445
  P       99.087    -281.039    -175.774
  C      101.331    -280.825    -177.134
  O       99.946    -281.168    -177.121
  O       99.641    -281.714    -174.559
  O       99.066    -279.452    -175.484
  H       99.748    -279.282    -174.803
  H      101.727    -280.977    -178.116
  H      101.858    -281.443    -176.438
  H      101.447    -279.798    -176.858

 6  7  8  9  10  11  12  13  14  15  16  26  31  32  33  34  35 0
 6-311+G(2d,p)
 ****
 36  37 0
 6-311+G(2d,p)
 ****
 1  2  3  4  5  17  18  19  20  21  22  23  24  25 0
 3-21G
 ****
 27  28  29  30  38  39  40  41  42  43  44  45 0
 3-21G
 ****


