%nproc=1
%NoSave
%Mem=1900MB
#P OB98/GEN NMR

erre ene a

0 1
  C     -899.330     180.569    -898.490
  O     -898.470     179.458    -898.300
  H     -900.000     180.356    -899.340
  H     -898.750     181.468    -898.730
  H     -899.930     180.735    -897.590
  P     -897.330     179.632    -897.180
  C     -895.280     181.248    -897.010
  O     -896.490     180.916    -897.680
  C     -894.450     182.203    -897.870
  O     -895.230     183.399    -898.160
  C     -893.160     182.698    -897.240
  O     -892.120     181.726    -897.260
  C     -892.880     183.881    -898.110
  O     -892.370     183.433    -899.400
  C     -894.290     184.517    -898.270
  N     -894.570     185.509    -897.230
  C     -894.410     186.852    -897.580
  O     -894.060     187.156    -898.730
  N     -894.660     187.823    -896.650
  C     -895.040     187.501    -895.450
  N     -895.240     188.495    -894.560
  C     -895.220     186.076    -895.020
  C     -894.970     185.154    -895.970
  O     -896.330     178.408    -897.480
  O     -897.810     179.705    -895.760
  H     -892.430     184.203    -900.000
  H     -895.520     178.513    -896.930
  H     -895.540     185.869    -894.000
  H     -895.100     184.108    -895.700
  H     -894.410     184.963    -899.240
  H     -892.130     184.554    -897.690
  H     -893.350     183.035    -896.210
  H     -894.260     181.699    -898.840
  H     -895.040     189.437    -894.850
  H     -894.710     180.324    -896.840
  H     -895.390     188.341    -893.570
  H     -895.500     181.713    -896.050
  P     -890.900     181.927    -896.230
  C     -888.920     183.592    -896.010
  O     -890.080     183.213    -896.710
  O     -889.930     180.686    -896.580
  O     -891.320     181.924    -894.780
  H     -889.490     180.382    -895.770
  H     -888.500     184.466    -896.462
  H     -888.207     182.795    -896.044
  H     -889.171     183.803    -894.991

 6  7  8  9  10  11  12  13  14  15  16  26  30  31  32  33  35 0
 6-311+G(2d,p)
 ****
 37  38 0
 6-311+G(2d,p)
 ****
 1  2  3  4  5  17  18  19  20  21  22  23  24  25 0
 3-21G
 ****
 27  28  29  34  36  39  40  41  42  43  44  45  46 0
 3-21G
 ****


