%nproc=1
%NoSave
%Mem=1900MB
#P OB98/GEN NMR

erre ene a

0 1
  C     -162.583     932.260    -306.297
  O     -161.311     932.569    -305.766
  H     -163.025     933.193    -306.675
  H     -163.236     931.862    -305.519
  H     -162.500     931.555    -307.123
  P     -160.394     931.353    -305.228
  C     -157.967     931.581    -306.057
  O     -159.270     931.100    -306.349
  C     -157.523     932.584    -307.124
  O     -158.324     933.793    -307.002
  C     -156.049     932.995    -306.988
  O     -155.493     933.152    -308.300
  C     -156.117     934.363    -306.309
  O     -154.990     935.177    -306.612
  C     -157.436     934.921    -306.851
  N     -157.527     939.839    -305.718
  C     -156.892     939.164    -306.746
  N     -156.142     939.920    -307.591
  N     -156.971     937.870    -306.934
  C     -157.763     937.246    -306.030
  C     -158.442     937.792    -304.969
  C     -158.325     939.226    -304.759
  O     -158.856     939.868    -303.864
  N     -159.103     936.824    -304.252
  C     -158.836     935.697    -304.884
  N     -158.020     935.907    -305.961
  O     -161.140     930.133    -304.808
  O     -159.576     931.996    -304.023
  H     -155.103     935.482    -307.543
  H     -159.964     931.760    -303.159
  H     -157.417     940.822    -305.607
  H     -159.190     934.721    -304.586
  H     -157.321     935.399    -307.834
  H     -156.165     934.224    -305.223
  H     -156.052     940.919    -307.516
  H     -155.453     932.289    -306.433
  H     -155.685     939.453    -308.365
  H     -157.721     932.157    -308.108
  H     -157.280     930.728    -306.036
  H     -157.964     932.058    -305.078
  P     -155.347     931.850    -309.237
  C     -157.211     932.197    -310.988
  O     -156.790     931.482    -309.825
  O     -154.590     930.711    -308.636
  O     -154.584     932.439    -310.534
  H     -154.041     931.733    -310.905
  H     -158.184     931.862    -311.280
  H     -156.519     932.021    -311.785
  H     -157.245     933.244    -310.770

 6  7  8  9  10  11  12  13  14  15  26  29  33  34 0
 6-311+G(2d,p)
 ****
 36  38  39  40  41 0
 6-311+G(2d,p)
 ****
 1  2  3  4  5  16  17  18  19  20  21  22  23  24  25 0
 3-21G
 ****
 27  28  30  31  32  35  37  42  43  44  45  46  47 0
 3-21G
 ****
 48  49 0
 3-21G
 ****


