%nproc=1
%NoSave
%Mem=1900MB
#P OB98/GEN NMR

erre ene a

0 1
  C      206.675    -167.925      76.729
  O      207.652    -167.961      75.711
  H      205.735    -167.558      76.303
  H      206.987    -167.245      77.527
  H      206.511    -168.927      77.135
  P      209.117    -168.470      76.129
  C      210.187    -166.107      76.248
  O      209.787    -167.270      76.964
  C      211.471    -165.527      76.846
  O      212.004    -164.521      75.935
  C      211.275    -164.855      78.214
  O      212.419    -165.131      79.030
  C      211.255    -163.378      77.869
  O      211.604    -162.560      78.985
  C      212.261    -163.344      76.720
  N      214.317    -158.827      75.830
  C      214.719    -159.846      76.679
  N      215.837    -159.632      77.402
  N      214.074    -160.981      76.802
  C      212.985    -161.067      76.000
  C      212.479    -160.132      75.127
  C      213.191    -158.875      75.014
  O      212.871    -157.926      74.298
  N      211.336    -160.590      74.517
  C      211.151    -161.802      75.015
  N      212.131    -162.138      75.913
  O      209.927    -168.453      74.748
  O      209.167    -169.803      76.795
  H      211.673    -161.634      78.666
  H      210.622    -169.142      74.740
  H      214.844    -157.971      75.782
  H      210.332    -162.467      74.768
  H      213.303    -163.378      77.072
  H      210.257    -163.083      77.525
  H      216.408    -158.794      77.335
  H      210.369    -165.177      78.730
  H      216.158    -160.369      78.027
  H      212.220    -166.328      76.903
  H      209.384    -165.359      76.307
  H      210.350    -166.375      75.197
  P      212.172    -165.858      80.442
  C      211.264    -163.774      81.707
  O      210.993    -165.086      81.222
  O      213.487    -165.482      81.278
  O      212.003    -167.339      80.335
  H      214.053    -166.268      81.372
  H      210.395    -163.389      82.200
  H      211.521    -163.137      80.887
  H      212.079    -163.811      82.399

 6  7  8  9  10  11  12  13  14  15  26  29  33  34 0
 6-311+G(2d,p)
 ****
 36  38  39  40  41 0
 6-311+G(2d,p)
 ****
 1  2  3  4  5  16  17  18  19  20  21  22  23  24  25 0
 3-21G
 ****
 27  28  30  31  32  35  37  42  43  44  45  46  47 0
 3-21G
 ****
 48  49 0
 3-21G
 ****


