%nproc=1
%NoSave
%Mem=1900MB
#P OB98/GEN NMR

erre ene a

0 1
  C       30.529     487.601    -664.386
  O       30.529     488.022    -665.735
  H       31.301     488.131    -663.820
  H       29.549     487.825    -663.950
  H       30.699     486.521    -664.330
  P       31.919     487.877    -666.525
  C       31.828     490.365    -667.253
  O       32.564     489.347    -666.585
  C       32.578     491.690    -667.179
  O       32.676     492.128    -665.810
  C       34.012     491.638    -667.690
  O       34.074     491.683    -669.111
  C       34.578     492.908    -667.069
  O       34.194     494.053    -667.865
  C       33.870     492.956    -665.708
  N       36.347     494.256    -661.409
  C       35.622     494.992    -662.281
  N       35.002     494.578    -663.406
  C       35.168     493.257    -663.593
  C       35.883     492.385    -662.783
  C       36.497     492.933    -661.641
  N       37.248     492.183    -660.765
  N       35.818     491.098    -663.275
  C       35.093     491.192    -664.369
  N       34.674     492.477    -664.600
  O       31.462     487.608    -668.040
  O       32.826     486.799    -666.026
  H       34.687     494.812    -667.512
  H       32.094     486.987    -668.453
  H       35.525     496.044    -662.046
  H       34.828     490.357    -665.010
  H       33.524     493.968    -665.464
  H       35.666     492.908    -667.004
  H       34.546     490.764    -667.288
  H       31.996     492.440    -667.732
  H       30.854     490.475    -666.775
  H       37.500     492.584    -659.873
  H       37.352     491.189    -660.947
  H       31.680     490.071    -668.297
  P       35.461     491.248    -669.808
  C       35.574     493.622    -670.843
  O       36.244     492.618    -670.093
  O       34.996     490.778    -671.267
  O       36.220     490.184    -669.096
  H       35.641     490.142    -671.632
  H       36.214     494.472    -670.953
  H       34.680     493.912    -670.332
  H       35.323     493.237    -671.809

 6  7  8  9  10  11  12  13  14  15  25  28  32  33  34  35 0
 6-311+G(2d,p)
 ****
 36  39  40 0
 6-311+G(2d,p)
 ****
 1  2  3  4  5  16  17  18  19  20  21  22  23  24 0
 3-21G
 ****
 26  27  29  30  31  37  38  41  42  43  44  45  46  47  48 0
 3-21G
 ****


