%nproc=1
%NoSave
%Mem=1900MB
#P OB98/GEN NMR

erre ene a

0 1
  C       30.676      13.898     -44.502
  O       30.806      15.092     -45.277
  P       31.420      16.374     -44.531
  C       33.450      16.633     -46.122
  O       32.272      17.224     -45.593
  C       33.870      17.285     -47.445
  O       32.953      16.932     -48.512
  C       33.926      18.812     -47.382
  O       34.987      19.238     -48.241
  C       32.605      19.229     -47.998
  O       32.654      20.575     -48.466
  C       32.451      18.156     -49.089
  N       31.075      18.009     -49.559
  C       30.893      17.740     -50.916
  O       31.863      17.706     -51.678
  N       29.620      17.557     -51.392
  C       28.610      17.687     -50.590
  N       27.371      17.498     -51.121
  C       28.751      18.029     -49.160
  C       29.998      18.169     -48.720
  O       32.531      15.746     -43.567
  O       30.407      17.156     -43.759
  H       31.807      20.767     -48.923
  H       32.422      16.091     -42.662
  H       27.879      18.146     -48.534
  H       30.204      18.417     -47.688
  H       33.077      18.398     -49.957
  H       31.799      19.144     -47.259
  H       34.089      19.202     -46.373
  H       34.857      16.892     -47.718
  H       27.315      17.256     -52.103
  H       33.286      15.566     -46.287
  H       26.518      17.574     -50.589
  H       34.249      16.705     -45.377
  P       36.242      19.986     -47.585
  C       37.472      19.821     -49.834
  O       36.994      20.683     -48.819
  O       37.223      18.755     -47.272
  O       36.019      20.823     -46.372
  H       38.011      19.075     -46.798
  H       37.847      20.428     -50.661
  H       36.666      19.181     -50.202
  H       38.293      19.209     -49.448
  H       30.258      13.123     -45.109
  H       30.033      14.083     -43.667
  H       31.640      13.595     -44.150

 3  4  5  6  7  8  9  10  11  12  13  21  23  27  28  29  30  32 0
 6-311+G(2d,p)
 ****
 34  35 0
 6-311+G(2d,p)
 ****
 1  2  14  15  16  17  18  19  20  22  24  25  26 0
 3-21G
 ****
 31  33  36  37  38  39  40  41  42  43  44  45  46 0
 3-21G
 ****


