%nproc=1
%NoSave
%Mem=1900MB
#P OB98/GEN NMR

erre ene a

0 1
  C       94.330     -76.028    -232.650
  O       95.423     -75.149    -232.820
  H       94.227     -76.255    -231.587
  H       94.511     -76.963    -233.189
  H       93.403     -75.570    -233.002
  P       95.739     -74.575    -234.284
  C       97.972     -75.833    -234.481
  O       96.667     -75.663    -235.015
  C       98.956     -76.227    -235.580
  O       98.569     -77.524    -236.106
  C       99.003     -75.237    -236.751
  O      100.349     -75.135    -237.206
  C       98.154     -75.913    -237.815
  O       98.521     -75.507    -239.134
  C       98.417     -77.392    -237.536
  N       96.207     -79.263    -241.675
  C       97.351     -78.509    -241.540
  N       98.001     -78.177    -242.682
  N       97.827     -78.108    -240.391
  C       97.088     -78.521    -239.332
  C       95.934     -79.267    -239.334
  C       95.411     -79.697    -240.617
  O       94.396     -80.352    -240.796
  N       95.466     -79.459    -238.057
  C       96.331     -78.826    -237.289
  N       97.327     -78.231    -238.014
  O       96.270     -73.178    -234.327
  O       94.345     -74.704    -235.056
  H       98.270     -74.561    -239.224
  H       93.886     -73.844    -235.086
  H       95.882     -79.536    -242.585
  H       96.281     -78.759    -236.207
  H       99.335     -77.751    -238.019
  H       97.098     -75.663    -237.659
  H       97.703     -78.468    -243.601
  H       98.620     -74.248    -236.484
  H       98.858     -77.644    -242.606
  H       99.948     -76.351    -235.133
  H       97.931     -76.623    -233.721
  H       98.296     -74.903    -234.003
  P      101.353     -74.148    -236.437
  C      101.940     -72.166    -237.980
  O      101.078     -72.652    -236.954
  O      102.784     -74.563    -236.419
  O      100.745     -74.119    -234.948
  H      101.471     -73.966    -234.313
  H      101.659     -71.166    -238.238
  H      101.857     -72.794    -238.843
  H      102.951     -72.173    -237.630

 6  7  8  9  10  11  12  13  14  15  26  29  33  34 0
 6-311+G(2d,p)
 ****
 36  38  39  40  41 0
 6-311+G(2d,p)
 ****
 1  2  3  4  5  16  17  18  19  20  21  22  23  24  25 0
 3-21G
 ****
 27  28  30  31  32  35  37  42  43  44  45  46  47 0
 3-21G
 ****
 48  49 0
 3-21G
 ****


