%nproc=1
%NoSave
%Mem=1900MB
#P OB98/GEN NMR

erre ene a

0 1
  C     -284.873     899.586     103.880
  O     -284.919     898.670     104.954
  H     -285.209     900.562     104.238
  H     -285.541     899.256     103.079
  H     -283.851     899.682     103.499
  P     -284.271     897.224     104.699
  C     -282.923     897.052     106.915
  O     -284.024     896.574     106.147
  C     -283.166     896.768     108.397
  O     -284.341     897.481     108.861
  C     -283.394     895.294     108.734
  O     -282.171     894.591     108.853
  C     -284.093     895.427     110.073
  O     -283.119     895.721     111.102
  C     -285.005     896.639     109.855
  N     -289.957     897.675     110.213
  C     -288.884     898.225     110.904
  N     -289.167     899.171     111.811
  N     -287.643     897.862     110.703
  C     -287.507     896.896     109.765
  C     -288.491     896.270     109.032
  C     -289.864     896.688     109.245
  O     -290.846     896.248     108.659
  N     -287.970     895.347     108.178
  C     -286.664     895.387     108.398
  N     -286.331     896.299     109.363
  O     -282.789     897.561     104.190
  O     -284.996     896.360     103.716
  H     -282.316     895.226     110.877
  H     -282.526     896.905     103.517
  H     -290.894     897.981     110.409
  H     -285.932     894.771     107.889
  H     -285.147     897.241     110.759
  H     -284.605     894.506     110.371
  H     -290.102     899.463     112.044
  H     -284.074     894.826     108.016
  H     -288.393     899.611     112.285
  H     -282.311     897.163     108.957
  H     -282.838     898.134     106.758
  H     -282.014     896.558     106.579
  P     -281.728     893.659     107.623
  C     -279.220     893.461     108.267
  O     -280.476     892.806     108.158
  O     -281.065     894.709     106.607
  O     -282.827     892.891     106.989
  H     -281.078     894.346     105.700
  H     -278.489     892.771     108.634
  H     -279.305     894.285     108.945
  H     -278.920     893.820     107.305

 6  7  8  9  10  11  12  13  14  15  26  29  33  34 0
 6-311+G(2d,p)
 ****
 36  38  39  40  41 0
 6-311+G(2d,p)
 ****
 1  2  3  4  5  16  17  18  19  20  21  22  23  24  25 0
 3-21G
 ****
 27  28  30  31  32  35  37  42  43  44  45  46  47 0
 3-21G
 ****
 48  49 0
 3-21G
 ****


