%nproc=1
%NoSave
%Mem=1900MB
#P OB98/GEN NMR

erre ene a

0 1
  C      254.579    -313.975     503.448
  O      254.348    -315.257     502.898
  H      253.743    -313.719     504.106
  H      254.636    -313.228     502.651
  H      255.503    -313.963     504.035
  P      255.499    -315.939     502.015
  C      256.883    -315.215     499.960
  O      255.686    -315.026     500.709
  C      256.901    -314.251     498.772
  O      256.730    -312.891     499.224
  C      258.209    -314.272     497.991
  O      258.295    -315.409     497.160
  C      258.120    -312.946     497.250
  O      257.289    -313.066     496.084
  C      257.455    -312.037     498.307
  N      258.414    -311.192     499.015
  C      258.054    -309.857     499.187
  O      257.001    -309.381     498.752
  N      258.954    -309.075     499.861
  C      260.202    -309.461     500.263
  O      261.008    -308.695     500.783
  C      260.539    -310.871     500.033
  C      259.649    -311.662     499.427
  O      255.329    -317.395     501.747
  O      256.836    -315.648     502.848
  H      257.798    -313.598     495.438
  H      257.119    -316.467     503.299
  H      258.714    -308.107     499.984
  H      261.515    -311.218     500.351
  H      259.882    -312.703     499.245
  H      256.702    -311.387     497.834
  H      259.093    -312.589     496.919
  H      259.062    -314.225     498.682
  H      256.054    -314.494     498.114
  H      256.907    -316.246     499.594
  H      257.744    -315.048     500.615
  P      259.721    -315.880     496.597
  C      261.624    -314.427     495.665
  O      260.242    -314.751     495.579
  O      259.770    -317.276     496.068
  O      260.701    -315.718     497.857
  H      261.084    -316.587     498.082
  H      261.858    -313.669     494.947
  H      262.208    -315.301     495.465
  H      261.845    -314.067     496.648

 6  7  8  9  10  11  12  13  14  15  16  26  31  32  33  34  35 0
 6-311+G(2d,p)
 ****
 36  37 0
 6-311+G(2d,p)
 ****
 1  2  3  4  5  17  18  19  20  21  22  23  24  25 0
 3-21G
 ****
 27  28  29  30  38  39  40  41  42  43  44  45 0
 3-21G
 ****


