%nproc=1
%NoSave
%Mem=1900MB
#P OB98/GEN NMR

erre ene a

0 1
  C     -346.157     449.572    -465.200
  O     -345.431     448.361    -465.246
  H     -347.161     449.369    -464.806
  H     -346.253     450.001    -466.204
  H     -345.661     450.288    -464.541
  P     -343.964     448.436    -465.897
  C     -343.177     448.766    -468.360
  O     -344.255     448.526    -467.472
  C     -343.534     448.261    -469.759
  O     -343.752     446.831    -469.743
  C     -344.816     448.858    -470.327
  O     -344.638     450.167    -470.844
  C     -345.118     447.859    -471.428
  O     -344.242     448.087    -472.546
  C     -344.778     446.527    -470.719
  N     -345.942     445.905    -470.074
  C     -346.887     445.304    -470.907
  O     -346.739     445.317    -472.128
  N     -348.005     444.729    -470.341
  C     -348.162     444.745    -469.051
  N     -349.288     444.176    -468.553
  C     -347.179     445.351    -468.131
  C     -346.113     445.900    -468.698
  O     -343.406     446.942    -465.736
  O     -343.065     449.489    -465.345
  H     -343.329     448.093    -472.192
  H     -342.546     446.849    -466.218
  H     -347.353     445.346    -467.062
  H     -345.344     446.378    -468.085
  H     -344.362     445.803    -471.429
  H     -346.144     447.927    -471.803
  H     -345.631     448.833    -469.597
  H     -342.675     448.449    -470.420
  H     -349.975     443.818    -469.204
  H     -342.296     448.234    -467.990
  H     -349.580     444.299    -467.590
  H     -342.958     449.833    -468.409
  P     -345.954     451.027    -471.167
  C     -347.237     451.427    -473.397
  O     -346.513     450.510    -472.582
  O     -345.361     452.474    -471.536
  O     -346.954     451.101    -470.059
  H     -345.925     453.181    -471.174
  H     -347.541     450.939    -474.299
  H     -346.612     452.262    -473.636
  H     -348.102     451.769    -472.868

 6  7  8  9  10  11  12  13  14  15  16  26  30  31  32  33  35 0
 6-311+G(2d,p)
 ****
 37  38 0
 6-311+G(2d,p)
 ****
 1  2  3  4  5  17  18  19  20  21  22  23  24  25 0
 3-21G
 ****
 27  28  29  34  36  39  40  41  42  43  44  45  46 0
 3-21G
 ****


