%nproc=1
%NoSave
%Mem=1900MB
#P OB98/GEN NMR

erre ene a

0 1
  C      -65.553      -6.086      62.370
  O      -65.349      -4.715      62.102
  H      -66.604      -6.240      62.628
  H      -64.934      -6.393      63.219
  H      -65.312      -6.701      61.499
  P      -64.003      -4.264      61.359
  C      -65.298      -2.979      59.532
  O      -64.329      -2.906      60.568
  C      -65.376      -1.659      58.755
  O      -65.876      -0.613      59.625
  C      -63.979      -1.225      58.292
  O      -64.025      -0.450      57.097
  C      -63.505      -0.344      59.438
  O      -62.469       0.560      59.056
  C      -64.814       0.334      59.846
  N      -64.405       4.253      63.079
  C      -64.188       4.222      61.718
  N      -63.791       5.379      61.139
  N      -64.334       3.145      60.985
  C      -64.662       2.044      61.706
  C      -64.877       1.947      63.063
  C      -64.751       3.152      63.853
  O      -64.912       3.237      65.070
  N      -65.171       0.656      63.435
  C      -65.129      -0.026      62.308
  N      -64.837       0.775      61.227
  O      -63.849      -5.328      60.172
  O      -62.774      -4.216      62.216
  H      -62.350       1.193      59.788
  H      -62.917      -5.409      59.905
  H      -64.294       5.112      63.594
  H      -65.307      -1.094      62.217
  H      -65.004       1.212      59.215
  H      -63.096      -0.992      60.221
  H      -63.499       6.176      61.682
  H      -63.316      -2.076      58.139
  H      -63.352       5.305      60.218
  H      -66.088      -1.750      57.925
  H      -66.264      -3.194      60.005
  H      -65.070      -3.809      58.858
  P      -63.195      -0.984      55.833
  C      -64.414       0.664      54.193
  O      -63.195       0.168      54.720
  O      -64.144      -2.124      55.222
  O      -61.840      -1.507      56.178
  H      -63.783      -3.008      55.432
  H      -64.206       1.423      53.468
  H      -65.002       1.079      54.985
  H      -64.953      -0.135      53.729

 6  7  8  9  10  11  12  13  14  15  26  29  33  34 0
 6-311+G(2d,p)
 ****
 36  38  39  40  41 0
 6-311+G(2d,p)
 ****
 1  2  3  4  5  16  17  18  19  20  21  22  23  24  25 0
 3-21G
 ****
 27  28  30  31  32  35  37  42  43  44  45  46  47 0
 3-21G
 ****
 48  49 0
 3-21G
 ****


