%nproc=1
%NoSave
%Mem=1900MB
#P OB98/GEN NMR

erre ene a

0 1
  C        1.962     337.500    -321.197
  O        0.805     337.342    -321.993
  H        2.006     336.681    -320.475
  H        1.907     338.446    -320.651
  H        2.864     337.476    -321.813
  P        0.712     338.236    -323.323
  C       -0.958     339.900    -322.232
  O        0.308     339.716    -322.851
  C       -1.729     341.019    -322.927
  O       -2.962     341.293    -322.226
  C       -0.977     342.344    -323.007
  O       -0.082     342.371    -324.113
  C       -2.131     343.312    -323.214
  O       -2.578     343.245    -324.585
  C       -3.206     342.724    -322.287
  N       -4.326     346.736    -319.383
  C       -4.417     346.576    -320.753
  N       -4.864     347.646    -321.451
  N       -4.096     345.479    -321.390
  C       -3.644     344.501    -320.565
  C       -3.504     344.540    -319.194
  C       -3.873     345.753    -318.507
  O       -3.822     345.939    -317.294
  N       -3.009     343.354    -318.709
  C       -2.834     342.614    -319.782
  N       -3.200     343.263    -320.935
  O       -0.619     337.684    -324.028
  O        1.888     338.142    -324.235
  H       -3.315     343.881    -324.675
  H       -0.365     337.092    -324.762
  H       -4.576     347.605    -318.950
  H       -2.454     341.599    -319.780
  H       -4.220     342.870    -322.682
  H       -1.853     344.349    -323.020
  H       -5.106     348.529    -321.030
  H       -0.467     342.578    -322.063
  H       -4.942     347.555    -322.460
  H       -1.998     340.665    -323.933
  H       -0.809     340.157    -321.180
  H       -1.520     338.961    -322.297
  P        1.369     343.021    -323.896
  C        0.753     345.022    -325.430
  O        1.222     344.601    -324.155
  O        2.175     342.509    -325.181
  O        2.057     342.638    -322.633
  H        2.865     341.870    -324.904
  H        0.706     346.091    -325.458
  H       -0.222     344.618    -325.603
  H        1.423     344.675    -326.189

 6  7  8  9  10  11  12  13  14  15  26  29  33  34 0
 6-311+G(2d,p)
 ****
 36  38  39  40  41 0
 6-311+G(2d,p)
 ****
 1  2  3  4  5  16  17  18  19  20  21  22  23  24  25 0
 3-21G
 ****
 27  28  30  31  32  35  37  42  43  44  45  46  47 0
 3-21G
 ****
 48  49 0
 3-21G
 ****


