%nproc=1
%NoSave
%Mem=1900MB
#P OB98/GEN NMR

erre ene a

0 1
  C      -79.811     198.608    -167.235
  O      -79.858     200.004    -167.019
  P      -78.965     200.683    -165.873
  C      -80.855     200.326    -164.155
  O      -80.015     201.273    -164.810
  C      -81.713     201.006    -163.087
  O      -80.879     201.589    -162.068
  C      -82.579     202.141    -163.615
  O      -83.712     201.629    -164.290
  C      -82.892     202.894    -162.329
  O      -83.984     202.285    -161.622
  C      -81.575     202.736    -161.535
  N      -80.754     203.938    -161.579
  C      -81.155     204.985    -160.742
  O      -82.166     204.875    -160.046
  N      -80.425     206.150    -160.749
  C      -79.406     206.265    -161.539
  N      -78.732     207.448    -161.508
  C      -78.970     205.198    -162.462
  C      -79.682     204.074    -162.431
  O      -77.932     201.645    -166.355
  O      -78.347     199.423    -165.100
  H      -84.122     202.825    -160.817
  H      -77.630     198.993    -165.628
  H      -78.119     205.345    -163.110
  H      -79.434     203.241    -163.076
  H      -81.789     202.507    -160.481
  H      -83.171     203.934    -162.518
  H      -81.989     202.781    -164.280
  H      -82.340     200.236    -162.616
  H      -79.081     208.164    -160.886
  H      -80.222     199.571    -163.683
  H      -77.948     207.657    -162.106
  H      -81.487     199.829    -164.901
  P      -83.889     201.881    -165.859
  C      -84.458     204.381    -165.812
  O      -84.942     203.075    -166.053
  O      -84.151     200.663    -166.679
  O      -82.498     202.559    -166.284
  H      -82.190     202.153    -167.119
  H      -85.137     205.097    -166.284
  H      -83.457     204.516    -166.224
  H      -84.438     204.571    -164.735
  H      -80.472     198.349    -168.036
  H      -80.114     198.099    -166.344
  H      -78.812     198.320    -167.489

 3  4  5  6  7  8  9  10  11  12  13  23  27  28  29  30  32 0
 6-311+G(2d,p)
 ****
 34  35 0
 6-311+G(2d,p)
 ****
 1  2  14  15  16  17  18  19  20  21  22  24  25  26 0
 3-21G
 ****
 31  33  36  37  38  39  40  41  42  43  44  45  46 0
 3-21G
 ****


