%nproc=1
%NoSave
%Mem=1900MB
#P OB98/GEN NMR

erre ene a

0 1
  C       57.045     510.684     269.219
  O       56.520     509.391     269.460
  H       56.218     511.397     269.165
  H       57.591     510.700     268.269
  H       57.714     510.982     270.031
  P       57.581     508.185     269.472
  C       57.031     508.095     266.924
  O       57.237     507.375     268.128
  C       57.025     507.137     265.741
  O       56.674     507.827     264.527
  C       58.374     506.480     265.458
  O       58.657     505.404     266.340
  C       58.152     506.003     264.037
  O       57.323     504.821     264.043
  C       57.401     507.207     263.429
  N       58.288     508.176     262.790
  C       58.340     508.151     261.386
  O       57.671     507.337     260.749
  N       59.181     509.029     260.739
  C       59.900     509.870     261.429
  N       60.723     510.700     260.735
  C       59.856     509.941     262.898
  C       59.045     509.077     263.503
  O       57.025     507.208     270.615
  O       59.017     508.568     269.630
  H       56.492     505.063     264.489
  H       57.545     506.365     270.619
  H       60.479     510.644     263.429
  H       58.966     509.069     264.588
  H       56.653     506.872     262.690
  H       59.078     505.738     263.524
  H       59.186     507.218     265.459
  H       56.244     506.381     265.924
  H       60.767     510.591     259.731
  H       57.843     508.829     266.813
  H       61.437     511.256     261.185
  H       56.077     508.631     266.965
  P       60.207     505.046     266.597
  C       59.691     502.777     265.435
  O       60.338     503.448     266.509
  O       60.391     505.345     268.159
  O       61.186     505.814     265.761
  H       61.254     505.748     268.345
  H       59.869     501.725     265.513
  H       60.078     503.137     264.505
  H       58.639     502.965     265.479

 6  7  8  9  10  11  12  13  14  15  16  26  30  31  32  33  35 0
 6-311+G(2d,p)
 ****
 37  38 0
 6-311+G(2d,p)
 ****
 1  2  3  4  5  17  18  19  20  21  22  23  24  25 0
 3-21G
 ****
 27  28  29  34  36  39  40  41  42  43  44  45  46 0
 3-21G
 ****


