%nproc=1
%NoSave
%Mem=1900MB
#P OB98/GEN NMR

erre ene a

0 1
  C      125.414    -764.041    -467.318
  O      124.995    -763.065    -468.287
  P      124.407    -761.675    -467.742
  C      122.357    -762.525    -466.367
  O      122.828    -761.847    -467.535
  C      120.842    -762.737    -466.443
  O      120.115    -761.524    -466.216
  C      120.354    -763.254    -467.790
  O      120.526    -764.655    -467.903
  C      118.883    -762.903    -467.732
  O      118.175    -763.886    -466.946
  C      118.903    -761.549    -467.001
  N      116.240    -757.436    -468.478
  C      115.972    -758.403    -467.572
  N      116.716    -759.476    -467.244
  C      117.864    -759.485    -467.957
  C      118.273    -758.564    -468.909
  C      117.403    -757.494    -469.162
  N      117.689    -756.500    -470.079
  N      119.506    -758.905    -469.417
  C      119.843    -760.009    -468.777
  N      118.877    -760.398    -467.888
  O      124.497    -760.722    -469.025
  O      125.158    -761.120    -466.581
  H      118.432    -763.750    -466.020
  H      124.699    -759.801    -468.735
  H      115.024    -758.310    -467.049
  H      120.760    -760.563    -468.924
  H      118.062    -761.447    -466.308
  H      118.413    -762.883    -468.719
  H      120.841    -762.715    -468.616
  H      120.558    -763.449    -465.657
  H      122.617    -761.963    -465.477
  H      117.020    -755.749    -470.190
  H      118.567    -756.532    -470.573
  H      122.887    -763.486    -466.281
  P      121.916    -765.186    -468.523
  C      120.663    -766.012    -470.657
  O      121.505    -766.344    -469.558
  O      122.578    -765.977    -467.304
  O      122.799    -764.110    -469.058
  H      123.557    -765.938    -467.372
  H      120.749    -766.805    -471.410
  H      120.991    -765.076    -471.125
  H      119.634    -765.939    -470.331
  H      125.781    -764.910    -467.823
  H      124.582    -764.311    -466.701
  H      126.191    -763.628    -466.709

 3  4  5  6  7  8  9  10  11  12  22  25  29  30  31  32 0
 6-311+G(2d,p)
 ****
 33  36  37 0
 6-311+G(2d,p)
 ****
 1  2  13  14  15  16  17  18  19  20  21  23  24  26 0
 3-21G
 ****
 27  28  34  35  38  39  40  41  42  43  44  45  46  47  48 0
 3-21G
 ****


