%nproc=1
%NoSave
%Mem=1900MB
#P OB98/GEN NMR

erre ene a

0 1
  C      603.136    -235.232    -414.936
  O      602.648    -236.098    -415.950
  H      602.498    -234.354    -414.885
  H      604.158    -234.919    -415.162
  H      603.113    -235.738    -413.962
  P      603.425    -237.474    -416.215
  C      604.035    -236.847    -418.653
  O      604.511    -237.153    -417.346
  C      605.161    -236.321    -419.525
  O      605.774    -235.174    -418.902
  C      606.280    -237.332    -419.770
  O      605.917    -238.227    -420.803
  C      607.416    -236.398    -420.163
  O      607.231    -235.944    -421.518
  C      607.206    -235.232    -419.170
  N      611.712    -235.019    -416.857
  C      611.392    -234.879    -418.196
  N      612.440    -234.702    -419.047
  N      610.172    -234.929    -418.666
  C      609.252    -235.181    -417.711
  C      609.446    -235.353    -416.353
  C      610.793    -235.238    -415.853
  O      611.119    -235.337    -414.660
  N      608.274    -235.673    -415.713
  C      607.361    -235.641    -416.671
  N      607.914    -235.361    -417.899
  O      602.576    -238.669    -416.523
  O      604.307    -237.678    -414.892
  H      607.416    -236.714    -422.089
  H      603.838    -238.228    -414.241
  H      612.681    -234.986    -416.567
  H      606.303    -235.813    -416.524
  H      607.499    -234.264    -419.605
  H      608.398    -236.866    -420.102
  H      613.378    -234.933    -418.785
  H      606.563    -237.864    -418.845
  H      612.222    -234.642    -420.035
  H      604.727    -235.982    -420.472
  H      603.246    -236.102    -418.553
  H      603.606    -237.753    -419.114
  P      606.853    -239.486    -421.182
  C      607.182    -238.743    -423.652
  O      607.791    -238.951    -422.378
  O      606.116    -240.738    -421.487
  O      607.874    -239.603    -419.962
  H      607.546    -240.170    -419.220
  H      607.917    -238.390    -424.345
  H      606.401    -238.018    -423.560
  H      606.772    -239.666    -424.006

 6  7  8  9  10  11  12  13  14  15  26  29  33  34 0
 6-311+G(2d,p)
 ****
 36  38  39  40  41 0
 6-311+G(2d,p)
 ****
 1  2  3  4  5  16  17  18  19  20  21  22  23  24  25 0
 3-21G
 ****
 27  28  30  31  32  35  37  42  43  44  45  46  47 0
 3-21G
 ****
 48  49 0
 3-21G
 ****


