%nproc=1
%NoSave
%Mem=1900MB
#P OB98/GEN NMR

erre ene a

0 1
  C      124.439      26.315    -115.097
  O      124.079      25.039    -114.609
  H      123.599      26.724    -115.664
  H      125.305      26.233    -115.759
  H      124.666      26.989    -114.266
  P      125.167      24.259    -113.717
  C      124.779      25.434    -111.424
  O      124.565      24.275    -112.223
  C      123.772      25.479    -110.270
  O      122.437      25.653    -110.808
  C      123.771      24.208    -109.414
  O      123.699      24.567    -108.032
  C      122.514      23.470    -109.847
  O      122.011      22.615    -108.822
  C      121.593      24.625    -110.253
  N      120.576      24.200    -111.218
  C      119.462      23.528    -110.703
  O      119.373      23.312    -109.491
  N      118.505      23.073    -111.572
  C      118.673      23.218    -112.851
  N      117.695      22.725    -113.662
  C      119.854      23.878    -113.442
  C      120.756      24.343    -112.577
  O      126.380      25.297    -113.646
  O      125.551      22.907    -114.218
  H      122.773      22.127    -108.434
  H      127.203      24.868    -113.306
  H      119.958      23.960    -114.514
  H      121.657      24.839    -112.919
  H      121.085      25.047    -109.372
  H      122.743      22.849    -110.722
  H      124.655      23.589    -109.571
  H      123.984      26.368    -109.662
  H      116.905      22.271    -113.224
  H      124.661      26.322    -112.049
  H      117.734      22.758    -114.673
  H      125.798      25.408    -111.022
  P      124.416      23.561    -107.006
  C      126.894      23.339    -107.749
  O      125.960      23.996    -106.901
  O      124.462      22.176    -107.808
  O      123.709      23.434    -105.696
  H      123.736      21.592    -107.521
  H      127.874      23.729    -107.570
  H      126.626      23.505    -108.771
  H      126.885      22.289    -107.544

 6  7  8  9  10  11  12  13  14  15  16  26  30  31  32  33  35 0
 6-311+G(2d,p)
 ****
 37  38 0
 6-311+G(2d,p)
 ****
 1  2  3  4  5  17  18  19  20  21  22  23  24  25 0
 3-21G
 ****
 27  28  29  34  36  39  40  41  42  43  44  45  46 0
 3-21G
 ****


