%nproc=1
%NoSave
%Mem=1900MB
#P OB98/GEN NMR

erre ene a

0 1
  C     -409.785    -791.951    -369.120
  O     -409.367    -793.221    -369.584
  H     -410.438    -791.505    -369.867
  H     -408.919    -791.302    -368.981
  H     -410.337    -792.043    -368.182
  P     -408.389    -794.091    -368.656
  C     -408.904    -796.464    -369.570
  O     -409.122    -795.515    -368.537
  C     -409.385    -797.839    -369.144
  O     -410.812    -797.850    -368.908
  C     -409.177    -798.953    -370.168
  O     -407.813    -799.366    -370.283
  C     -410.056    -800.032    -369.592
  O     -409.413    -800.628    -368.451
  C     -411.295    -799.197    -369.164
  N     -412.340    -799.189    -370.186
  C     -412.858    -800.445    -370.563
  O     -412.412    -801.474    -370.068
  N     -413.836    -800.491    -371.532
  C     -414.235    -799.379    -372.111
  N     -415.205    -799.483    -373.058
  C     -413.710    -798.046    -371.741
  C     -412.776    -798.030    -370.791
  O     -407.984    -793.463    -367.355
  O     -407.147    -794.448    -369.608
  H     -410.041    -801.260    -368.064
  H     -406.499    -794.981    -369.077
  H     -414.065    -797.164    -372.258
  H     -412.351    -797.082    -370.473
  H     -411.717    -799.576    -368.221
  H     -410.286    -800.829    -370.296
  H     -409.567    -798.651    -371.156
  H     -408.900    -798.075    -368.192
  H     -415.533    -800.424    -373.288
  H     -407.827    -796.478    -369.795
  H     -415.521    -798.693    -373.610
  H     -409.439    -796.161    -370.477
  P     -406.889    -798.571    -371.340
  C     -404.661    -798.793    -370.000
  O     -405.680    -797.940    -370.494
  O     -407.778    -797.303    -371.720
  O     -406.462    -799.356    -372.528
  H     -408.253    -797.464    -372.579
  H     -403.940    -798.213    -369.463
  H     -404.182    -799.288    -370.819
  H     -405.092    -799.521    -369.345

 6  7  8  9  10  11  12  13  14  15  16  26  30  31  32  33  35 0
 6-311+G(2d,p)
 ****
 37  38 0
 6-311+G(2d,p)
 ****
 1  2  3  4  5  17  18  19  20  21  22  23  24  25 0
 3-21G
 ****
 27  28  29  34  36  39  40  41  42  43  44  45  46 0
 3-21G
 ****


