%nproc=1
%NoSave
%Mem=1900MB
#P OB98/GEN NMR

erre ene a

0 1
  C     -342.341    -986.308     272.680
  O     -342.078    -984.932     272.948
  P     -342.567    -984.324     274.352
  C     -341.133    -985.497     276.253
  O     -341.367    -984.393     275.409
  C     -340.297    -985.051     277.467
  O     -338.960    -984.702     277.046
  C     -340.870    -983.826     278.174
  O     -341.854    -984.199     279.157
  C     -339.631    -983.192     278.777
  O     -339.215    -983.913     279.963
  C     -338.616    -983.400     277.632
  N     -338.558    -982.396     276.553
  C     -338.219    -981.075     276.841
  O     -337.957    -980.662     277.976
  N     -338.177    -980.205     275.774
  C     -338.265    -980.547     274.454
  O     -338.166    -979.745     273.546
  C     -338.469    -981.984     274.195
  C     -338.612    -982.820     275.227
  O     -343.605    -985.403     274.895
  O     -343.159    -982.958     274.250
  H     -339.053    -984.822     279.689
  H     -344.494    -985.009     274.941
  H     -338.009    -979.237     275.988
  H     -338.498    -982.301     273.154
  H     -338.764    -983.884     275.031
  H     -337.596    -983.489     278.037
  H     -339.813    -982.167     279.082
  H     -341.298    -983.125     277.458
  H     -340.213    -985.886     278.182
  H     -340.613    -986.299     275.724
  H     -342.096    -985.903     276.591
  P     -343.070    -983.216     279.472
  C     -344.667    -983.710     277.522
  O     -344.377    -983.943     278.886
  O     -342.875    -981.788     279.069
  O     -343.270    -983.352     281.057
  H     -342.805    -982.642     281.543
  H     -345.462    -984.374     277.208
  H     -343.775    -983.887     276.901
  H     -344.987    -982.666     277.384
  H     -341.958    -986.563     271.714
  H     -343.397    -986.480     272.702
  H     -341.865    -986.913     273.423

 3  4  5  6  7  8  9  10  11  12  13  23  28  29  30  31  32 0
 6-311+G(2d,p)
 ****
 33  34 0
 6-311+G(2d,p)
 ****
 1  2  14  15  16  17  18  19  20  21  22  24  25  26  27 0
 3-21G
 ****
 35  36  37  38  39  40  41  42  43  44  45 0
 3-21G
 ****


