%nproc=1
%NoSave
%Mem=1900MB
#P OB98/GEN NMR

erre ene a

0 1
  C      184.143    -385.884     125.533
  O      185.270    -385.158     125.985
  H      183.593    -386.250     126.403
  H      184.457    -386.741     124.930
  H      183.484    -385.238     124.949
  P      186.272    -384.546     124.897
  C      185.470    -382.108     124.603
  O      185.435    -383.435     124.094
  C      185.506    -381.102     123.451
  O      186.771    -381.178     122.762
  C      184.427    -381.316     122.394
  O      183.198    -380.750     122.818
  C      185.038    -380.572     121.220
  O      184.874    -379.150     121.413
  C      186.528    -380.946     121.347
  N      189.629    -382.795     117.779
  C      189.421    -381.489     118.180
  N      190.111    -380.540     117.513
  N      188.598    -381.149     119.138
  C      187.921    -382.194     119.662
  C      188.030    -383.524     119.338
  C      188.992    -383.901     118.325
  O      189.224    -385.049     117.961
  N      187.115    -384.286     120.021
  C      186.491    -383.423     120.798
  N      186.936    -382.133     120.612
  O      186.969    -385.538     124.014
  O      187.302    -383.675     125.754
  H      185.070    -378.967     122.350
  H      188.087    -384.199     126.002
  H      190.271    -382.999     117.029
  H      185.715    -383.671     121.514
  H      187.188    -380.132     121.027
  H      184.575    -380.825     120.268
  H      190.641    -380.727     116.675
  H      184.326    -382.375     122.129
  H      189.925    -379.575     117.756
  H      185.440    -380.094     123.888
  H      186.368    -382.015     125.223
  H      184.590    -381.917     125.225
  P      181.792    -381.468     122.505
  C      181.403    -381.784     125.042
  O      181.504    -382.405     123.772
  O      181.723    -382.160     121.191
  O      180.707    -380.310     122.691
  H      180.585    -379.763     121.876
  H      181.210    -382.527     125.788
  H      180.602    -381.075     125.030
  H      182.320    -381.282     125.267

 6  7  8  9  10  11  12  13  14  15  26  29  33  34 0
 6-311+G(2d,p)
 ****
 36  38  39  40  41 0
 6-311+G(2d,p)
 ****
 1  2  3  4  5  16  17  18  19  20  21  22  23  24  25 0
 3-21G
 ****
 27  28  30  31  32  35  37  42  43  44  45  46  47 0
 3-21G
 ****
 48  49 0
 3-21G
 ****


