%nproc=1
%NoSave
%Mem=1900MB
#P OB98/GEN NMR

erre ene a

0 1
  C      363.495    -227.541    -523.989
  O      363.981    -227.978    -522.737
  P      364.256    -226.928    -521.553
  C      361.788    -226.669    -520.848
  O      363.076    -227.167    -520.489
  C      360.694    -227.370    -520.045
  O      360.613    -228.765    -520.407
  C      360.915    -227.348    -518.542
  O      360.589    -226.079    -518.007
  C      360.006    -228.482    -518.091
  O      358.647    -228.040    -517.969
  C      360.152    -229.490    -519.252
  N      361.042    -230.595    -518.917
  C      360.449    -231.862    -518.840
  O      359.234    -231.992    -519.017
  N      361.235    -232.944    -518.514
  C      362.496    -232.766    -518.266
  N      363.219    -233.873    -517.939
  C      363.156    -231.447    -518.306
  C      362.373    -230.415    -518.630
  O      364.453    -225.517    -521.993
  O      365.536    -227.552    -520.810
  H      358.682    -227.155    -517.553
  H      366.361    -227.418    -521.342
  H      364.207    -231.353    -518.077
  H      362.776    -229.413    -518.682
  H      359.168    -229.912    -519.518
  H      360.300    -228.884    -517.115
  H      361.959    -227.604    -518.317
  H      359.734    -226.894    -520.294
  H      362.721    -234.756    -517.896
  H      361.631    -226.861    -521.917
  H      364.201    -233.846    -517.695
  H      361.758    -225.586    -520.685
  P      361.162    -225.641    -516.576
  C      362.938    -223.960    -517.353
  O      361.692    -224.131    -516.706
  O      362.114    -226.606    -515.943
  O      359.839    -225.478    -515.679
  H      359.998    -225.894    -514.807
  H      363.024    -222.914    -517.673
  H      363.015    -224.607    -518.231
  H      363.745    -224.186    -516.657
  H      363.377    -228.382    -524.639
  H      364.190    -226.851    -524.420
  H      362.549    -227.058    -523.856

 3  4  5  6  7  8  9  10  11  12  13  23  27  28  29  30  32 0
 6-311+G(2d,p)
 ****
 34  35 0
 6-311+G(2d,p)
 ****
 1  2  14  15  16  17  18  19  20  21  22  24  25  26 0
 3-21G
 ****
 31  33  36  37  38  39  40  41  42  43  44  45  46 0
 3-21G
 ****


