%nproc=1
%NoSave
%Mem=1900MB
#P OB98/GEN NMR

erre ene a

0 1
  C     -179.310     -33.629    -293.494
  O     -180.245     -34.348    -292.706
  P     -181.242     -33.506    -291.772
  C     -180.599     -33.657    -289.253
  O     -180.377     -33.024    -290.505
  C     -179.729     -34.908    -289.132
  O     -178.347     -34.599    -289.440
  C     -179.700     -35.513    -287.734
  O     -180.837     -36.325    -287.476
  C     -178.445     -36.372    -287.808
  O     -178.732     -37.609    -288.493
  C     -177.509     -35.495    -288.661
  N     -172.800     -35.279    -286.823
  C     -173.339     -36.130    -287.770
  N     -172.526     -37.096    -288.247
  N     -174.569     -36.040    -288.212
  C     -175.276     -35.033    -287.631
  C     -174.847     -34.129    -286.685
  C     -173.486     -34.251    -286.198
  O     -172.970     -33.563    -285.318
  N     -175.839     -33.252    -286.348
  C     -176.873     -33.615    -287.086
  N     -176.586     -34.718    -287.850
  O     -182.200     -34.633    -291.153
  O     -182.009     -32.441    -292.480
  H     -177.902     -38.129    -288.483
  H     -183.007     -34.217    -290.785
  H     -171.847     -35.401    -286.513
  H     -177.835     -33.124    -287.093
  H     -176.929     -36.091    -289.372
  H     -178.049     -36.636    -286.825
  H     -171.588     -37.259    -287.912
  H     -179.569     -34.744    -286.962
  H     -172.913     -37.770    -288.902
  H     -180.083     -35.642    -289.869
  H     -181.648     -33.938    -289.171
  H     -180.364     -32.952    -288.449
  P     -181.280     -36.490    -285.941
  C     -180.999     -38.880    -284.959
  O     -180.369     -37.676    -285.363
  O     -182.737     -37.136    -286.051
  O     -181.272     -35.214    -285.162
  H     -183.271     -36.911    -285.262
  H     -180.232     -39.656    -284.848
  H     -181.724     -39.214    -285.705
  H     -181.499     -38.735    -283.992
  H     -178.717     -34.317    -294.060
  H     -178.674     -33.052    -292.855
  H     -179.833     -32.976    -294.161

 3  4  5  6  7  8  9  10  11  12  23  26  30  31 0
 6-311+G(2d,p)
 ****
 33  35  36  37  38 0
 6-311+G(2d,p)
 ****
 1  2  13  14  15  16  17  18  19  20  21  22  24  25 0
 3-21G
 ****
 27  28  29  32  34  39  40  41  42  43  44  45  46  47  48  49 0
 3-21G
 ****


