%nproc=1
%NoSave
%Mem=1900MB
#P OB98/GEN NMR

erre ene a

0 1
  C     -113.205      58.704      18.967
  O     -114.326      59.526      19.311
  P     -114.303      60.504      20.583
  C     -112.576      62.396      20.420
  O     -113.915      62.001      20.139
  C     -112.205      63.750      19.801
  O     -112.244      63.688      18.348
  C     -113.104      64.922      20.218
  O     -112.272      66.082      20.207
  C     -114.107      64.973      19.074
  O     -114.795      66.212      18.978
  C     -113.194      64.669      17.891
  N     -114.939      65.847      13.220
  C     -114.081      66.484      14.045
  N     -113.634      66.090      15.255
  C     -114.132      64.885      15.582
  C     -115.009      64.109      14.837
  C     -115.429      64.643      13.606
  N     -116.339      64.020      12.781
  N     -115.326      62.945      15.511
  C     -114.657      63.020      16.645
  N     -113.916      64.177      16.734
  O     -113.506      59.985      21.739
  O     -115.844      60.634      21.007
  H     -115.507      66.117      18.317
  H     -115.922      60.532      21.974
  H     -113.706      67.440      13.687
  H     -114.686      62.291      17.441
  H     -112.632      65.562      17.581
  H     -114.859      64.185      19.221
  H     -113.574      64.787      21.192
  H     -111.160      63.960      20.074
  H     -111.896      61.621      20.037
  H     -116.647      64.521      11.965
  H     -116.809      63.185      13.109
  H     -112.444      62.443      21.507
  P     -111.811      66.804      21.563
  C     -109.907      65.146      21.982
  O     -110.247      66.498      21.737
  O     -112.649      66.484      22.759
  O     -111.848      68.368      21.221
  H     -111.880      68.882      22.052
  H     -110.133      64.889      23.023
  H     -108.839      65.009      21.803
  H     -110.461      64.476      21.314
  H     -113.435      58.136      18.090
  H     -112.989      58.039      19.777
  H     -112.353      59.323      18.777

 3  4  5  6  7  8  9  10  11  12  22  25  29  30  31  32 0
 6-311+G(2d,p)
 ****
 33  36  37 0
 6-311+G(2d,p)
 ****
 1  2  13  14  15  16  17  18  19  20  21  23  24  26 0
 3-21G
 ****
 27  28  34  35  38  39  40  41  42  43  44  45  46  47  48 0
 3-21G
 ****


