%nproc=1
%NoSave
%Mem=1900MB
#P OB98/GEN NMR

erre ene a

0 1
  C     -107.729     102.398     -74.678
  O     -107.426     103.724     -75.073
  H     -107.588     101.739     -75.539
  H     -108.768     102.328     -74.346
  H     -107.053     102.083     -73.880
  P     -107.604     104.863     -73.958
  C     -105.210     105.847     -73.967
  O     -106.148     105.010     -73.300
  C     -103.879     105.861     -73.213
  O     -103.377     104.521     -73.070
  C     -102.778     106.659     -73.902
  O     -102.897     108.041     -73.591
  C     -101.536     106.049     -73.262
  O     -101.318     106.641     -71.963
  C     -101.924     104.569     -73.104
  N     -100.543      99.764     -74.274
  C     -100.802     100.361     -73.091
  N     -101.102     101.653     -72.849
  C     -101.147     102.359     -73.991
  C     -100.909     101.882     -75.275
  C     -100.598     100.520     -75.398
  N     -100.330      99.910     -76.610
  N     -101.036     102.896     -76.203
  C     -101.411     103.946     -75.500
  N     -101.455     103.682     -74.153
  O     -108.741     104.665     -73.006
  O     -107.704     106.174     -74.873
  H     -102.021     106.294     -71.376
  H     -107.066     106.127     -75.609
  H     -100.750      99.710     -72.213
  H     -101.679     104.910     -75.915
  H     -101.559     104.152     -72.154
  H     -100.635     106.229     -73.846
  H     -102.753     106.480     -74.983
  H     -104.067     106.246     -72.200
  H     -105.604     106.872     -74.040
  H      -99.933      98.986     -76.584
  H     -100.246     100.503     -77.422
  H     -105.075     105.455     -74.977
  P     -103.450     109.089     -74.671
  C     -105.377     109.915     -73.177
  O     -105.019     109.216     -74.371
  O     -103.081     108.774     -76.085
  O     -102.877     110.500     -74.179
  H     -102.931     111.156     -74.903
  H     -106.443     109.936     -73.082
  H     -105.003     110.916     -73.224
  H     -104.954     109.416     -72.331

 6  7  8  9  10  11  12  13  14  15  25  28  32  33  34  35 0
 6-311+G(2d,p)
 ****
 36  39  40 0
 6-311+G(2d,p)
 ****
 1  2  3  4  5  16  17  18  19  20  21  22  23  24 0
 3-21G
 ****
 26  27  29  30  31  37  38  41  42  43  44  45  46  47 0
 3-21G
 ****
 48 0
 3-21G
 ****


