%nproc=1
%NoSave
%Mem=1900MB
#P OB98/GEN NMR

erre ene a

0 1
  C     -357.336    -136.029     295.642
  O     -356.058    -135.563     296.024
  H     -357.349    -137.119     295.704
  H     -357.566    -135.735     294.613
  H     -358.098    -135.633     296.321
  P     -355.721    -134.006     295.866
  C     -353.307    -134.503     295.125
  O     -354.137    -133.859     296.079
  C     -351.864    -134.006     295.236
  O     -351.787    -132.667     294.674
  C     -351.348    -133.944     296.681
  O     -349.968    -134.323     296.682
  C     -351.495    -132.475     297.023
  O     -350.620    -132.092     298.067
  C     -351.234    -131.795     295.676
  N     -351.828    -130.461     295.631
  C     -351.014    -129.431     295.145
  O     -349.862    -129.674     294.774
  N     -351.489    -128.144     295.160
  C     -352.657    -127.894     295.667
  N     -353.054    -126.595     295.680
  C     -353.541    -128.945     296.209
  C     -353.070    -130.190     296.159
  O     -356.552    -133.069     296.681
  O     -355.903    -133.738     294.298
  H     -349.695    -132.107     297.734
  H     -356.822    -133.462     294.109
  H     -354.505    -128.686     296.622
  H     -353.644    -131.027     296.546
  H     -350.157    -131.707     295.485
  H     -352.522    -132.274     297.355
  H     -351.912    -134.586     297.365
  H     -351.224    -134.646     294.619
  H     -352.400    -125.904     295.319
  H     -353.698    -134.271     294.127
  H     -353.922    -126.274     296.083
  H     -353.340    -135.587     295.272
  P     -349.521    -135.770     297.217
  C     -347.646    -134.807     298.667
  O     -347.965    -135.717     297.623
  O     -349.893    -136.909     296.326
  O     -350.262    -135.899     298.636
  H     -350.457    -136.841     298.811
  H     -346.595    -134.844     298.864
  H     -348.184    -135.076     299.552
  H     -347.919    -133.815     298.372

 6  7  8  9  10  11  12  13  14  15  16  26  30  31  32  33  35 0
 6-311+G(2d,p)
 ****
 37  38 0
 6-311+G(2d,p)
 ****
 1  2  3  4  5  17  18  19  20  21  22  23  24  25 0
 3-21G
 ****
 27  28  29  34  36  39  40  41  42  43  44  45  46 0
 3-21G
 ****


