%nproc=1
%NoSave
%Mem=1900MB
#P OB98/GEN NMR

erre ene a

0 1
  C      483.595     -93.005    -268.227
  O      484.670     -93.313    -269.093
  H      482.690     -92.876    -268.824
  H      483.793     -92.075    -267.687
  H      483.432     -93.819    -267.514
  P      486.119     -93.545    -268.451
  C      486.703     -95.019    -270.488
  O      487.087     -93.920    -269.672
  C      487.866     -95.442    -271.376
  O      489.031     -95.729    -270.577
  C      487.591     -96.693    -272.207
  O      486.836     -96.364    -273.363
  C      489.009     -97.135    -272.521
  O      489.558     -96.305    -273.563
  C      489.723     -96.855    -271.189
  N      492.579    -100.000    -268.424
  C      492.954     -99.020    -269.322
  N      494.277     -98.890    -269.548
  N      492.104     -98.253    -269.957
  C      490.812     -98.544    -269.685
  C      490.318     -99.499    -268.825
  C      491.266    -100.308    -268.087
  O      490.979    -101.172    -267.266
  N      488.947     -99.548    -268.857
  C      488.615     -98.591    -269.708
  N      489.710     -97.967    -270.248
  O      486.190     -94.509    -267.306
  O      486.599     -92.078    -268.033
  H      489.439     -95.383    -273.276
  H      486.362     -91.879    -267.110
  H      493.279    -100.570    -267.980
  H      487.598     -98.317    -269.963
  H      490.769     -96.561    -271.328
  H      489.073     -98.168    -272.861
  H      494.934     -99.627    -269.313
  H      487.106     -97.478    -271.614
  H      494.570     -98.215    -270.241
  H      488.125     -94.592    -272.022
  H      485.855     -94.696    -271.099
  H      486.389     -95.861    -269.867
  P      485.944     -97.468    -274.112
  C      484.363     -95.463    -274.521
  O      484.964     -96.632    -275.067
  O      485.254     -98.436    -273.213
  O      486.941     -98.150    -275.152
  H      487.438     -98.920    -274.778
  H      483.738     -95.005    -275.259
  H      485.127     -94.775    -274.224
  H      483.772     -95.730    -273.670

 6  7  8  9  10  11  12  13  14  15  26  29  33  34 0
 6-311+G(2d,p)
 ****
 36  38  39  40  41 0
 6-311+G(2d,p)
 ****
 1  2  3  4  5  16  17  18  19  20  21  22  23  24  25 0
 3-21G
 ****
 27  28  30  31  32  35  37  42  43  44  45  46  47 0
 3-21G
 ****
 48  49 0
 3-21G
 ****


