%nproc=1
%NoSave
%Mem=1900MB
#P OB98/GEN NMR

erre ene a

0 1
  C      379.264    -893.540     554.234
  O      380.325    -894.090     553.447
  P      380.840    -895.550     553.849
  C      380.367    -896.480     551.443
  O      380.141    -896.600     552.859
  C      379.489    -897.450     550.662
  O      378.125    -896.990     550.620
  C      379.876    -897.600     549.203
  O      380.988    -898.500     549.025
  C      378.620    -898.200     548.604
  O      378.602    -899.610     548.843
  C      377.506    -897.510     549.423
  N      374.700    -896.220     545.412
  C      375.155    -897.460     545.809
  N      374.774    -898.520     545.042
  N      375.889    -897.660     546.853
  C      376.168    -896.500     547.555
  C      375.788    -895.200     547.221
  C      374.983    -895.010     546.058
  O      374.580    -893.920     545.623
  N      376.246    -894.320     548.187
  C      376.882    -895.060     549.057
  N      376.869    -896.400     548.708
  O      380.102    -895.830     555.258
  O      382.322    -895.660     553.982
  H      377.863    -900.000     548.352
  H      380.611    -896.460     555.798
  H      374.122    -896.120     544.551
  H      377.354    -894.700     549.947
  H      376.728    -898.210     549.725
  H      378.539    -898.060     547.521
  H      374.146    -898.450     544.261
  H      380.094    -896.610     548.732
  H      375.072    -899.450     545.333
  H      379.514    -898.420     551.158
  H      381.437    -896.700     551.222
  H      380.195    -895.440     551.148
  P      382.445    -897.840     548.760
  C      383.562    -899.140     550.733
  O      383.208    -897.880     550.173
  O      382.100    -896.270     548.535
  O      383.188    -898.420     547.601
  H      382.724    -895.860     547.946
  H      383.936    -899.820     549.992
  H      382.640    -899.570     551.214
  H      384.297    -898.990     551.516
  H      379.014    -892.567     553.865
  H      379.578    -893.465     555.254
  H      378.406    -894.177     554.171

 3  4  5  6  7  8  9  10  11  12  23  26  30  31  33  0
 6-311+G(2d,p)
 ****
 35  36  37  38 0
 6-311+G(2d,p)
 ****
 1  2  13  14  15  16  17  18  19  20  21  22  24  25  27  28  29 0
 3-21G
 ****
 32  34  39  40  41  42  43  44  45  46  47  48  49 0
 3-21G
 ****


