%nproc=1
%NoSave
%Mem=1900MB
#P OB98/GEN NMR

erre ene a

0 1
  C      -23.797    -249.661     -75.692
  O      -24.707    -249.359     -74.655
  H      -24.349    -249.737     -76.636
  H      -23.305    -250.618     -75.496
  H      -23.048    -248.869     -75.785
  P      -24.097    -249.207     -73.180
  C      -22.933    -246.896     -73.389
  O      -24.039    -247.625     -72.876
  C      -23.371    -245.492     -73.814
  O      -24.168    -245.596     -75.030
  C      -24.222    -244.761     -72.766
  O      -23.871    -243.371     -72.771
  C      -25.638    -244.915     -73.300
  O      -26.512    -243.907     -72.803
  C      -25.379    -244.846     -74.803
  N      -29.986    -243.804     -76.546
  C      -29.097    -243.021     -75.837
  N      -29.495    -241.761     -75.541
  N      -27.921    -243.433     -75.445
  C      -27.639    -244.704     -75.835
  C      -28.437    -245.587     -76.526
  C      -29.747    -245.121     -76.934
  O      -30.588    -245.777     -77.546
  N      -27.804    -246.797     -76.694
  C      -26.634    -246.642     -76.104
  N      -26.484    -245.387     -75.571
  O      -22.554    -249.601     -73.370
  O      -24.758    -250.024     -72.123
  H      -26.461    -243.922     -71.824
  H      -22.194    -249.996     -72.557
  H      -30.883    -243.443     -76.809
  H      -25.862    -247.399     -76.029
  H      -25.221    -243.817     -75.152
  H      -26.041    -245.895     -73.017
  H      -30.373    -241.364     -75.835
  H      -24.113    -245.163     -71.753
  H      -28.847    -241.166     -75.032
  H      -22.479    -244.911     -74.073
  H      -22.523    -247.428     -74.255
  H      -22.159    -246.825     -72.617
  P      -23.042    -242.807     -71.519
  C      -20.763    -242.189     -72.604
  O      -21.984    -241.718     -72.047
  O      -22.118    -244.056     -71.111
  O      -23.898    -242.372     -70.376
  H      -22.441    -244.442     -70.275
  H      -20.165    -241.356     -72.909
  H      -20.973    -242.807     -73.452
  H      -20.233    -242.759     -71.870

 6  7  8  9  10  11  12  13  14  15  26  29  33  34 0
 6-311+G(2d,p)
 ****
 36  38  39  40  41 0
 6-311+G(2d,p)
 ****
 1  2  3  4  5  16  17  18  19  20  21  22  23  24  25 0
 3-21G
 ****
 27  28  30  31  32  35  37  42  43  44  45  46  47 0
 3-21G
 ****
 48  49 0
 3-21G
 ****


