%nproc=1
%NoSave
%Mem=1900MB
#P OB98/GEN NMR

erre ene a

0 1
  C      332.372    -306.870    -132.669
  O      331.100    -307.151    -132.124
  H      332.386    -305.832    -133.010
  H      332.575    -307.523    -133.521
  H      333.144    -307.002    -131.906
  P      330.829    -308.661    -131.654
  C      328.561    -308.670    -132.925
  O      329.242    -308.885    -131.694
  C      327.608    -309.833    -133.189
  O      328.366    -311.041    -133.432
  C      326.687    -310.160    -132.021
  O      325.584    -309.275    -131.929
  C      326.267    -311.575    -132.374
  O      325.161    -311.589    -133.289
  C      327.537    -312.150    -133.026
  N      328.240    -313.063    -132.126
  C      328.216    -314.407    -132.491
  O      327.649    -314.826    -133.502
  N      328.840    -315.270    -131.632
  C      329.422    -314.934    -130.446
  O      329.914    -315.766    -129.695
  C      329.402    -313.503    -130.104
  C      328.819    -312.644    -130.945
  O      331.171    -308.625    -130.091
  O      331.625    -309.696    -132.377
  H      332.022    -309.072    -129.929
  H      324.436    -311.110    -132.842
  H      328.833    -316.247    -131.879
  H      329.856    -313.200    -129.166
  H      328.781    -311.585    -130.709
  H      327.282    -312.704    -133.940
  H      325.957    -312.123    -131.486
  H      327.256    -310.179    -131.083
  H      327.023    -309.606    -134.090
  H      329.285    -308.613    -133.743
  H      328.017    -307.721    -132.870
  P      325.647    -308.115    -130.823
  C      323.341    -309.199    -130.163
  O      324.186    -308.059    -130.162
  O      325.719    -306.819    -131.760
  O      326.784    -308.270    -129.870
  H      325.298    -306.975    -132.626
  H      322.418    -308.959    -129.678
  H      323.821    -309.999    -129.640
  H      323.147    -309.498    -131.172

 6  7  8  9  10  11  12  13  14  15  16  27  31  32  33  34  35 0
 6-311+G(2d,p)
 ****
 36  37 0
 6-311+G(2d,p)
 ****
 1  2  3  4  5  17  18  19  20  21  22  23  24  25 0
 3-21G
 ****
 26  28  29  30  38  39  40  41  42  43  44  45 0
 3-21G
 ****


