%nproc=1
%NoSave
%Mem=1900MB
#P OB98/GEN NMR

erre ene a

0 1
  C     -938.718    -232.820    1841.760
  O     -938.818    -234.057    1841.045
  P     -940.069    -234.275    1840.076
  C     -939.201    -236.181    1838.516
  O     -939.532    -234.798    1838.667
  C     -937.740    -236.339    1838.089
  O     -936.840    -235.781    1839.062
  C     -937.318    -237.792    1837.902
  O     -937.687    -238.286    1836.621
  C     -935.809    -237.674    1837.998
  O     -935.283    -237.212    1836.729
  C     -935.631    -236.606    1839.075
  N     -932.138    -238.323    1842.322
  C     -932.005    -237.800    1841.041
  N     -930.747    -237.712    1840.572
  N     -933.013    -237.396    1840.317
  C     -934.198    -237.513    1840.927
  C     -934.476    -238.008    1842.175
  C     -933.362    -238.482    1842.974
  O     -933.434    -238.966    1844.100
  N     -935.815    -237.985    1842.431
  C     -936.345    -237.450    1841.357
  N     -935.423    -237.151    1840.408
  O     -940.529    -232.784    1839.754
  O     -941.175    -235.096    1840.687
  H     -934.303    -237.224    1836.812
  H     -941.503    -232.766    1839.578
  H     -931.341    -238.626    1842.835
  H     -937.416    -237.256    1841.229
  H     -934.797    -235.927    1838.876
  H     -935.321    -238.630    1838.200
  H     -929.918    -237.964    1841.100
  H     -937.713    -238.413    1838.718
  H     -930.609    -237.311    1839.656
  H     -937.593    -235.798    1837.142
  H     -939.877    -236.625    1837.767
  H     -939.416    -236.690    1839.457
  P     -938.936    -239.308    1836.532
  C     -940.426    -237.954    1834.873
  O     -940.225    -238.413    1836.214
  O     -939.159    -239.722    1838.065
  O     -938.702    -240.478    1835.655
  H     -939.482    -240.649    1838.120
  H     -941.402    -237.488    1834.803
  H     -940.379    -238.808    1834.178
  H     -939.654    -237.201    1834.603
  H     -937.833    -232.826    1842.362
  H     -939.576    -232.701    1842.389
  H     -938.670    -232.009    1841.064

 3  4  5  6  7  8  9  10  11  12  23  26  30  31 0
 6-311+G(2d,p)
 ****
 33  35  36  37  38 0
 6-311+G(2d,p)
 ****
 1  2  13  14  15  16  17  18  19  20  21  22  24  25 0
 3-21G
 ****
 27  28  29  32  34  39  40  41  42  43  44  45  46  47  48  49 0
 3-21G
 ****


