%nproc=1
%NoSave
%Mem=1900MB
#P OB98/GEN NMR

erre ene a

0 1
  C     -444.956     212.310    -518.199
  O     -445.808     212.740    -517.148
  P     -446.864     213.913    -517.399
  C     -448.961     212.813    -516.403
  O     -448.316     213.263    -517.593
  C     -449.986     211.732    -516.730
  O     -449.356     210.613    -517.389
  C     -450.673     211.131    -515.503
  O     -451.601     212.019    -514.929
  C     -451.268     209.860    -516.095
  O     -452.494     210.143    -516.782
  C     -450.167     209.445    -517.105
  N     -449.356     208.335    -516.619
  C     -449.986     207.087    -516.563
  O     -451.185     206.977    -516.833
  N     -449.243     205.996    -516.194
  C     -448.024     206.148    -515.794
  N     -447.317     205.024    -515.500
  C     -447.369     207.474    -515.689
  C     -448.083     208.510    -516.137
  O     -446.475     214.905    -518.453
  O     -446.988     214.627    -515.968
  H     -446.875     215.596    -516.088
  H     -452.325     210.927    -517.340
  H     -446.367     207.554    -515.286
  H     -447.672     209.513    -516.114
  H     -450.622     209.154    -518.063
  H     -451.489     209.106    -515.335
  H     -449.906     210.860    -514.764
  H     -450.732     212.156    -517.410
  H     -447.789     204.133    -515.598
  H     -449.457     213.667    -515.933
  H     -446.296     205.000    -515.501
  H     -448.206     212.426    -515.700
  P     -451.528     212.219    -513.332
  C     -451.178     214.775    -513.176
  O     -450.607     213.492    -513.050
  O     -450.637     210.977    -512.845
  O     -452.861     212.223    -512.649
  H     -450.963     210.654    -511.991
  H     -450.570     215.500    -512.629
  H     -452.204     214.804    -512.774
  H     -451.201     215.067    -514.236
  H     -444.323     211.523    -517.846
  H     -444.354     213.131    -518.529
  H     -445.549     211.952    -519.015

 3  4  5  6  7  8  9  10  11  12  13  24  27  28  29  30  32 0
 6-311+G(2d,p)
 ****
 34  35 0
 6-311+G(2d,p)
 ****
 1  2  14  15  16  17  18  19  20  21  22  23  25  26 0
 3-21G
 ****
 31  33  36  37  38  39  40  41  42  43  44  45  46 0
 3-21G
 ****


