%nproc=1
%NoSave
%Mem=1900MB
#P OB98/GEN NMR

erre ene a

0 1
  C      275.625    -119.036     195.948
  O      275.744    -119.732     194.723
  P      277.186    -120.140     194.151
  C      279.511    -119.026     194.101
  O      278.150    -118.906     194.511
  C      279.972    -117.762     193.378
  O      279.618    -116.584     194.134
  C      281.480    -117.683     193.169
  O      281.877    -118.517     192.098
  C      281.661    -116.191     192.913
  O      281.374    -115.860     191.542
  C      280.603    -115.568     193.852
  N      281.193    -115.034     195.075
  C      282.037    -113.931     194.909
  O      282.271    -113.486     193.784
  N      282.636    -113.388     196.021
  C      282.426    -113.917     197.185
  N      283.057    -113.340     198.249
  C      281.568    -115.100     197.395
  C      280.992    -115.601     196.309
  O      277.209    -120.576     192.726
  O      277.669    -121.282     195.169
  H      281.526    -114.895     191.458
  H      277.189    -122.130     195.015
  H      281.436    -115.511     198.387
  H      280.350    -116.472     196.373
  H      280.070    -114.753     193.341
  H      282.682    -115.859     193.116
  H      281.998    -117.956     194.093
  H      279.450    -117.715     192.411
  H      283.661    -112.550     198.054
  H      279.592    -119.881     193.425
  H      282.994    -113.695     199.193
  H      280.141    -119.222     194.982
  P      283.371    -119.097     192.053
  C      285.689    -118.089     192.505
  O      284.378    -117.856     192.019
  O      283.616    -120.151     191.022
  O      283.583    -119.694     193.525
  H      284.010    -120.564     193.458
  H      286.346    -117.302     192.130
  H      286.060    -119.063     192.165
  H      285.682    -118.061     193.597
  H      274.591    -118.856     196.157
  H      276.142    -118.102     195.879
  H      276.051    -119.623     196.735

 3  4  5  6  7  8  9  10  11  12  13  23  27  28  29  30  32 0
 6-311+G(2d,p)
 ****
 34  35 0
 6-311+G(2d,p)
 ****
 1  2  14  15  16  17  18  19  20  21  22  24  25  26 0
 3-21G
 ****
 31  33  36  37  38  39  40  41  42  43  44  45  46 0
 3-21G
 ****


