%nproc=1
%NoSave
%Mem=1900MB
#P OB98/GEN NMR

erre ene a

0 1
  C     -153.248    -509.369      66.285
  O     -152.191    -508.534      66.712
  H     -153.385    -510.165      67.024
  H     -153.008    -509.829      65.322
  H     -154.179    -508.802      66.210
  P     -151.784    -507.284      65.797
  C     -150.670    -507.128      63.462
  O     -150.935    -507.939      64.591
  C     -149.905    -507.928      62.407
  O     -150.684    -509.049      61.935
  C     -149.552    -507.150      61.142
  O     -148.498    -506.215      61.316
  C     -149.150    -508.299      60.236
  O     -147.847    -508.775      60.595
  C     -150.247    -509.342      60.573
  N     -151.381    -509.289      59.652
  C     -151.155    -509.749      58.351
  O     -150.040    -510.165      58.017
  N     -152.181    -509.700      57.436
  C     -153.327    -509.207      57.791
  N     -154.314    -509.176      56.839
  C     -153.613    -508.696      59.138
  C     -152.605    -508.768      60.016
  O     -151.120    -506.145      66.498
  O     -153.139    -506.874      65.046
  H     -147.244    -508.015      60.522
  H     -152.942    -506.094      64.472
  H     -154.575    -508.272      59.377
  H     -152.735    -508.407      61.028
  H     -149.831    -510.353      60.571
  H     -149.112    -508.020      59.177
  H     -150.439    -506.662      60.720
  H     -149.009    -508.337      62.894
  H     -154.086    -509.537      55.921
  H     -150.090    -506.261      63.792
  H     -155.210    -508.746      56.999
  H     -151.608    -506.786      63.022
  P     -148.419    -505.007      60.269
  C     -147.551    -504.853      57.812
  O     -147.502    -505.518      59.061
  O     -147.507    -503.930      61.027
  O     -149.737    -504.437      59.848
  H     -148.058    -503.241      61.446
  H     -146.878    -505.327      57.129
  H     -147.266    -503.830      57.941
  H     -148.546    -504.900      57.422

 6  7  8  9  10  11  12  13  14  15  16  26  30  31  32  33  35 0
 6-311+G(2d,p)
 ****
 37  38 0
 6-311+G(2d,p)
 ****
 1  2  3  4  5  17  18  19  20  21  22  23  24  25 0
 3-21G
 ****
 27  28  29  34  36  39  40  41  42  43  44  45  46 0
 3-21G
 ****


