%nproc=1
%NoSave
%Mem=1900MB
#P OB98/GEN NMR

erre ene a

0 1
  C     -685.065    -528.177     478.944
  O     -683.934    -527.365     479.278
  P     -682.492    -528.083     479.131
  C     -680.516    -528.570     480.764
  O     -681.922    -528.337     480.617
  C     -680.075    -528.475     482.224
  O     -680.285    -527.115     482.696
  C     -680.813    -529.402     483.199
  O     -679.885    -529.881     484.178
  C     -681.787    -528.487     483.888
  O     -682.216    -528.997     485.154
  C     -680.965    -527.200     483.964
  N     -684.601    -525.088     486.800
  C     -683.946    -526.295     486.945
  N     -684.342    -527.066     487.988
  N     -683.002    -526.723     486.153
  C     -682.698    -525.836     485.174
  C     -683.252    -524.609     484.912
  C     -684.330    -524.171     485.784
  O     -684.989    -523.128     485.651
  N     -682.669    -524.003     483.821
  C     -681.758    -524.873     483.416
  N     -681.741    -526.005     484.197
  O     -681.563    -526.907     478.560
  O     -682.495    -529.274     478.235
  H     -682.833    -528.334     485.530
  H     -681.149    -527.192     477.730
  H     -685.340    -524.818     487.414
  H     -681.115    -524.753     482.559
  H     -680.200    -527.268     484.750
  H     -682.688    -528.347     483.261
  H     -685.021    -526.762     488.679
  H     -681.307    -530.259     482.719
  H     -683.853    -527.940     488.152
  H     -678.995    -528.664     482.266
  H     -679.968    -527.843     480.161
  H     -680.283    -529.564     480.364
  P     -679.498    -531.444     484.112
  C     -680.531    -533.597     485.143
  O     -680.510    -532.177     485.112
  O     -678.101    -531.507     484.882
  O     -679.412    -531.990     482.727
  H     -677.563    -532.260     484.565
  H     -679.689    -534.038     484.603
  H     -681.477    -533.944     484.697
  H     -680.501    -533.924     486.181
  H     -685.963    -527.609     479.075
  H     -685.089    -529.035     479.583
  H     -684.988    -528.493     477.925

 3  4  5  6  7  8  9  10  11  12  23  26  30  31  33  0
 6-311+G(2d,p)
 ****
 35  36  37  38 0
 6-311+G(2d,p)
 ****
 1  2  13  14  15  16  17  18  19  20  21  22  24  25  27  28  29 0
 3-21G
 ****
 32  34  39  40  41  42  43  44  45  46  47  48  49 0
 3-21G
 ****


