%nproc=1
%NoSave
%Mem=1900MB
#P OB98/GEN NMR

erre ene a

0 1
  C      351.278     223.645     161.273
  O      350.362     222.840     162.022
  P      349.935     221.447     161.354
  C      347.522     222.081     160.640
  O      348.344     221.297     161.495
  C      346.334     221.257     160.129
  O      346.744     220.182     159.261
  C      345.526     220.607     161.243
  O      344.652     221.559     161.828
  C      344.789     219.504     160.492
  O      343.595     220.006     159.862
  C      345.819     219.079     159.431
  N      345.461     214.130     160.476
  C      344.470     215.085     160.357
  N      343.200     214.653     160.516
  N      344.703     216.344     160.104
  C      346.018     216.632     159.970
  C      347.088     215.768     160.036
  C      346.822     214.378     160.321
  O      347.662     213.491     160.412
  N      348.273     216.419     159.785
  C      347.924     217.690     159.693
  N      346.560     217.866     159.730
  O      350.522     220.358     162.369
  O      350.477     221.256     159.974
  H      343.124     219.266     159.437
  H      351.268     219.886     161.958
  H      345.227     213.172     160.679
  H      348.612     218.514     159.568
  H      345.341     218.906     158.457
  H      344.474     218.701     161.161
  H      342.948     213.693     160.707
  H      346.198     220.167     161.993
  H      342.456     215.332     160.423
  H      345.692     221.933     159.549
  H      348.106     222.448     159.794
  H      347.178     222.957     161.190
  P      345.186     222.389     163.089
  C      344.084     220.906     164.912
  O      344.143     222.174     164.284
  O      344.954     223.910     162.647
  O      346.619     222.143     163.435
  H      345.741     224.444     162.877
  H      343.775     221.042     165.949
  H      345.052     220.399     164.892
  H      343.341     220.285     164.398
  H      351.488     224.544     161.814
  H      350.844     223.892     160.327
  H      352.186     223.101     161.118

 3  4  5  6  7  8  9  10  11  12  23  26  30  31 0
 6-311+G(2d,p)
 ****
 33  35  36  37  38 0
 6-311+G(2d,p)
 ****
 1  2  13  14  15  16  17  18  19  20  21  22  24  25 0
 3-21G
 ****
 27  28  29  32  34  39  40  41  42  43  44  45  46  47  48  49 0
 3-21G
 ****


