%nproc=1
%NoSave
%Mem=1900MB
#P OB98/GEN NMR

erre ene a

0 1
  C     -270.973     196.225    -144.672
  O     -272.049     195.989    -143.788
  H     -271.296     196.961    -145.417
  H     -270.693     195.304    -145.194
  H     -270.115     196.629    -144.134
  P     -271.921     194.809    -142.703
  C     -274.474     194.824    -142.966
  O     -273.395     194.690    -142.050
  C     -275.494     195.862    -142.485
  O     -276.170     195.371    -141.296
  C     -274.872     197.223    -142.135
  O     -275.650     198.268    -142.720
  C     -274.966     197.280    -140.615
  O     -274.965     198.623    -140.130
  C     -276.243     196.471    -140.366
  N     -276.366     196.011    -138.988
  C     -277.646     196.041    -138.430
  O     -278.603     196.474    -139.085
  N     -277.818     195.614    -137.135
  C     -276.796     195.242    -136.439
  N     -277.023     194.841    -135.160
  C     -275.408     195.240    -136.971
  C     -275.274     195.628    -138.243
  O     -270.812     194.981    -141.720
  O     -271.807     193.473    -143.576
  H     -274.119     199.044    -140.382
  H     -271.414     192.749    -143.021
  H     -274.584     194.940    -136.352
  H     -274.294     195.650    -138.718
  H     -277.137     197.070    -140.614
  H     -274.103     196.758    -140.175
  H     -273.842     197.333    -142.475
  H     -276.272     195.967    -143.252
  H     -277.984     194.855    -134.834
  H     -274.958     193.842    -143.081
  H     -276.293     194.539    -134.525
  H     -274.071     195.144    -143.933
  P     -275.024     198.976    -144.024
  C     -275.492     201.312    -142.989
  O     -275.635     200.459    -144.123
  O     -275.716     198.193    -145.232
  O     -273.537     198.895    -144.083
  H     -275.102     197.527    -145.600
  H     -275.943     202.260    -143.197
  H     -274.453     201.450    -142.775
  H     -275.973     200.866    -142.144

 6  7  8  9  10  11  12  13  14  15  16  26  30  31  32  33  35 0
 6-311+G(2d,p)
 ****
 37  38 0
 6-311+G(2d,p)
 ****
 1  2  3  4  5  17  18  19  20  21  22  23  24  25 0
 3-21G
 ****
 27  28  29  34  36  39  40  41  42  43  44  45  46 0
 3-21G
 ****


