%nproc=1
%NoSave
%Mem=1900MB
#P OB98/GEN NMR

erre ene a

0 1
  C     -890.042     396.854    -442.184
  O     -890.821     397.282    -441.063
  P     -890.342     396.873    -439.582
  C     -890.079     399.246    -438.605
  O     -889.414     398.059    -439.013
  C     -889.746     400.406    -439.544
  O     -890.352     400.229    -440.850
  C     -890.269     401.747    -439.045
  O     -889.473     402.232    -437.968
  C     -890.219     402.583    -440.311
  O     -888.886     403.100    -440.535
  C     -890.568     401.551    -441.397
  N     -891.929     401.675    -441.899
  C     -892.282     402.937    -442.422
  O     -891.466     403.859    -442.411
  N     -893.546     403.107    -442.920
  C     -894.392     402.130    -442.900
  N     -895.637     402.352    -443.408
  C     -894.070     400.794    -442.341
  C     -892.831     400.652    -441.842
  O     -889.782     395.504    -439.439
  O     -891.686     397.053    -438.716
  H     -888.350     402.361    -440.858
  H     -891.660     396.416    -437.985
  H     -894.809     399.997    -442.351
  H     -892.527     399.700    -441.414
  H     -889.893     401.656    -442.254
  H     -890.886     403.448    -440.255
  H     -891.316     401.634    -438.719
  H     -888.649     400.449    -439.657
  H     -895.818     403.281    -443.771
  H     -889.776     399.491    -437.579
  H     -896.343     401.637    -443.479
  H     -891.157     399.057    -438.575
  P     -889.767     401.633    -436.502
  C     -887.485     400.534    -435.932
  O     -888.855     400.351    -436.302
  O     -891.254     401.022    -436.646
  O     -889.722     402.640    -435.400
  H     -891.718     401.122    -435.811
  H     -887.099     399.584    -435.539
  H     -887.389     401.316    -435.163
  H     -886.913     400.817    -436.812
  H     -890.494     397.207    -443.088
  H     -889.998     395.785    -442.201
  H     -889.051     397.250    -442.102

 3  4  5  6  7  8  9  10  11  12  13  23  27  28  29  30  32 0
 6-311+G(2d,p)
 ****
 34  35 0
 6-311+G(2d,p)
 ****
 1  2  14  15  16  17  18  19  20  21  22  24  25  26 0
 3-21G
 ****
 31  33  36  37  38  39  40  41  42  43  44  45  46 0
 3-21G
 ****


