%nproc=1
%NoSave
%Mem=1900MB
#P OB98/GEN NMR

erre ene a

0 1
  C     -527.477     124.043     364.415
  O     -526.139     124.432     364.665
  H     -527.886     123.591     365.322
  H     -527.509     123.305     363.607
  H     -528.081     124.913     364.149
  P     -525.365     125.136     363.447
  C     -523.599     123.241     363.147
  O     -524.699     123.947     362.597
  C     -523.379     121.922     362.393
  O     -524.517     121.044     362.648
  C     -523.275     122.089     360.868
  O     -522.446     121.030     360.362
  C     -524.718     121.858     360.433
  O     -524.805     121.646     359.044
  C     -525.073     120.696     361.357
  N     -529.132     118.445     359.211
  C     -527.823     118.441     358.883
  N     -526.802     119.048     359.508
  C     -527.233     119.711     360.596
  C     -528.537     119.798     361.062
  C     -529.519     119.134     360.314
  N     -530.855     119.146     360.642
  N     -528.594     120.576     362.210
  C     -527.343     120.939     362.432
  N     -526.491     120.452     361.482
  O     -524.116     125.835     364.165
  O     -526.170     126.110     362.648
  H     -524.204     120.928     358.760
  H     -524.327     126.769     364.357
  H     -527.567     117.860     357.995
  H     -527.006     121.562     363.255
  H     -524.602     119.759     361.035
  H     -525.338     122.731     360.652
  H     -522.866     123.054     360.560
  H     -522.494     121.421     362.802
  H     -523.812     123.034     364.205
  H     -522.696     123.855     363.079
  H     -531.498     118.650     360.042
  H     -531.156     119.667     361.450
  P     -521.093     121.406     359.582
  C     -521.464     120.865     357.049
  O     -521.468     121.838     358.080
  O     -520.428     119.962     359.349
  O     -520.149     122.310     360.311
  H     -519.460     120.051     359.299
  H     -521.735     121.326     356.122
  H     -522.168     120.094     357.283
  H     -520.486     120.440     356.963

 6  7  8  9  10  11  12  13  14  15  25  28  32  33  34  35 0
 6-311+G(2d,p)
 ****
 36  37  40 0
 6-311+G(2d,p)
 ****
 1  2  3  4  5  16  17  18  19  20  21  22  23  24 0
 3-21G
 ****
 26  27  29  30  31  38  39 41  42  43  44  45  46  47  48 0
 3-21G
 ****


