%nproc=1
%NoSave
%Mem=1900MB
#P OB98/GEN NMR

erre ene a

0 1
  C      -10.144      47.519      15.030
  O       -9.133      46.815      15.720
  H      -11.017      46.870      14.933
  H       -9.805      47.801      14.029
  H      -10.435      48.412      15.591
  P       -7.698      47.513      15.890
  C       -6.947      49.721      17.021
  O       -8.032      48.953      16.526
  C       -7.172      51.202      16.728
  O       -7.011      51.483      15.323
  C       -8.566      51.718      17.070
  O       -8.784      51.877      18.461
  C       -8.544      53.045      16.328
  O       -7.757      53.996      17.067
  C       -7.834      52.642      15.012
  N       -8.768      52.332      13.933
  C       -9.112      53.386      13.077
  O       -8.639      54.509      13.247
  N      -10.016      53.154      12.069
  C      -10.545      51.978      11.938
  N      -11.470      51.813      10.952
  C      -10.199      50.835      12.804
  C       -9.319      51.079      13.773
  O       -6.826      47.537      14.676
  O       -7.033      46.759      17.135
  H       -7.989      54.880      16.731
  H       -6.135      47.148      17.274
  H      -10.676      49.877      12.656
  H       -9.028      50.294      14.461
  H       -7.158      53.437      14.677
  H       -9.538      53.481      16.193
  H       -9.338      51.082      16.624
  H       -6.393      51.765      17.259
  H      -11.714      52.628      10.406
  H       -6.030      49.361      16.544
  H      -12.118      51.032      10.962
  H       -6.858      49.593      18.103
  P      -10.297      52.064      18.968
  C      -12.289      50.392      19.130
  O      -11.121      50.795      18.434
  O      -10.829      53.269      18.063
  O      -10.463      52.328      20.431
  H      -10.723      54.126      18.519
  H      -12.715      49.537      18.647
  H      -12.999      51.193      19.129
  H      -12.035      50.142      20.139

 6  7  8  9  10  11  12  13  14  15  16  26  30  31  32  33  35 0
 6-311+G(2d,p)
 ****
 37  38 0
 6-311+G(2d,p)
 ****
 1  2  3  4  5  17  18  19  20  21  22  23  24  25 0
 3-21G
 ****
 27  28  29  34  36  39  40  41  42  43  44  45  46 0
 3-21G
 ****


