%nproc=1
%NoSave
%Mem=1900MB
#P OB98/GEN NMR

erre ene a

0 1
  C     -899.260     237.091    -538.972
  O     -898.040     237.588    -538.490
  H     -899.080     236.490    -539.871
  H     -899.950     237.901    -539.238
  H     -899.730     236.447    -538.219
  P     -898.070     238.622    -537.269
  C     -899.300     240.492    -538.563
  O     -898.100     240.079    -537.936
  C     -899.030     241.703    -539.455
  O     -898.650     242.839    -538.654
  C     -897.880     241.486    -540.433
  O     -898.280     240.663    -541.510
  C     -897.530     242.921    -540.795
  O     -898.430     243.449    -541.769
  C     -897.710     243.627    -539.429
  N     -896.450     243.807    -538.711
  C     -896.010     245.129    -538.569
  O     -896.670     246.055    -539.028
  N     -894.820     245.347    -537.922
  C     -894.130     244.349    -537.451
  N     -892.967     244.633    -536.831
  C     -894.570     242.942    -537.570
  C     -895.730     242.744    -538.210
  O     -897.020     238.442    -536.202
  O     -899.550     238.470    -536.684
  H     -898.120     244.354    -541.959
  H     -899.580     237.771    -535.995
  H     -893.980     242.144    -537.159
  H     -896.130     241.745    -538.340
  H     -898.180     244.619    -539.571
  H     -896.530     242.996    -541.195
  H     -897.020     241.052    -539.914
  H     -899.950     241.960    -539.987
  H     -892.695     245.612    -536.784
  H     -900.000     240.760    -537.776
  H     -892.397     243.955    -536.354
  H     -899.730     239.679    -539.154
  P     -897.470     239.329    -541.864
  C     -895.460     240.715    -542.685
  O     -896.440     239.742    -543.017
  O     -898.320     238.134    -542.160
  O     -896.520     239.134    -540.587
  H     -897.030     238.812    -539.806
  H     -894.839     240.901    -543.536
  H     -894.859     240.354    -541.877
  H     -895.944     241.623    -542.392

 6  7  8  9  10  11  12  13  14  15  16  26  30  31  32  33  35 0
 6-311+G(2d,p)
 ****
 37  38 0
 6-311+G(2d,p)
 ****
 1  2  3  4  5  17  18  19  20  21  22  23  24  25 0
 3-21G
 ****
 27  28  29  34  36  39  40  41  42  43  44  45  46 0
 3-21G
 ****


