%nproc=1
%NoSave
%Mem=1900MB
#P OB98/GEN NMR

erre ene a

0 1
  C     -658.515    -466.718     834.842
  O     -657.461    -467.053     835.726
  P     -656.898    -465.886     836.678
  C     -658.734    -466.088     838.516
  O     -658.151    -465.296     837.483
  C     -658.412    -465.492     839.880
  O     -658.711    -464.078     839.894
  C     -659.210    -466.088     841.038
  O     -658.711    -467.370     841.390
  C     -659.012    -465.008     842.092
  O     -657.714    -465.148     842.700
  C     -659.069    -463.722     841.260
  N     -662.446    -461.049     844.034
  C     -661.232    -461.542     844.331
  N     -660.397    -462.264     843.550
  C     -660.937    -462.453     842.331
  C     -662.185    -462.034     841.886
  C     -662.952    -461.289     842.797
  N     -664.201    -460.789     842.488
  N     -662.400    -462.434     840.590
  C     -661.310    -463.082     840.247
  N     -660.388    -463.108     841.264
  O     -656.537    -464.723     835.646
  O     -655.716    -466.278     837.511
  H     -657.608    -464.409     843.332
  H     -655.753    -464.220     835.943
  H     -660.865    -461.330     845.340
  H     -661.135    -463.543     839.291
  H     -658.352    -462.965     841.595
  H     -659.760    -465.054     842.895
  H     -660.269    -466.168     840.769
  H     -657.331    -465.607     840.054
  H     -658.328    -467.101     838.467
  H     -664.745    -460.405     843.247
  H     -664.639    -461.091     841.625
  H     -659.816    -466.139     838.354
  P     -659.774    -468.464     841.897
  C     -659.624    -469.723     839.654
  O     -660.452    -468.978     840.535
  O     -660.913    -467.530     842.525
  O     -659.220    -469.511     842.791
  H     -661.167    -466.802     841.923
  H     -660.220    -470.056     838.808
  H     -659.207    -470.590     840.173
  H     -658.803    -469.084     839.288
  H     -658.790    -467.581     834.272
  H     -658.192    -465.942     834.180
  H     -659.359    -466.378     835.406

 3  4  5  6  7  8  9  10  11  12  22  25  29  30  31  32 0
 6-311+G(2d,p)
 ****
 33  36  37 0
 6-311+G(2d,p)
 ****
 1  2  13  14  15  16  17  18  19  20  21  23  24  26 0
 3-21G
 ****
 27  28  34  35  38  39  40  41  42  43  44  45  46  47  48 0
 3-21G
 ****


