%nproc=1
%NoSave
%Mem=1900MB
#P OB98/GEN NMR

erre ene a

0 1
  C      158.513     -34.634     -84.693
  O      158.633     -35.906     -85.294
  H      159.484     -34.134     -84.734
  H      158.216     -34.739     -83.648
  H      157.780     -34.027     -85.230
  P      157.307     -36.810     -85.366
  C      158.281     -38.192     -83.388
  O      157.173     -37.467     -83.903
  C      157.824     -39.157     -82.289
  O      157.228     -38.398     -81.210
  C      156.791     -40.176     -82.771
  O      157.109     -41.461     -82.233
  C      155.476     -39.668     -82.207
  O      154.525     -40.715     -82.020
  C      155.931     -38.957     -80.926
  N      154.985     -37.923     -80.514
  C      154.149     -38.227     -79.436
  O      154.219     -39.329     -78.889
  N      153.217     -37.303     -79.036
  C      153.089     -36.193     -79.695
  N      152.133     -35.327     -79.264
  C      153.917     -35.850     -80.868
  C      154.838     -36.746     -81.214
  O      157.758     -38.035     -86.289
  O      156.081     -36.107     -85.846
  H      153.665     -40.304     -81.782
  H      156.981     -38.563     -86.594
  H      153.761     -34.920     -81.394
  H      155.490     -36.580     -82.065
  H      156.045     -39.676     -80.104
  H      155.039     -38.940     -82.902
  H      156.742     -40.252     -83.856
  H      158.708     -39.652     -81.873
  H      151.578     -35.601     -78.463
  H      159.008     -37.486     -82.977
  H      151.925     -34.449     -79.719
  H      158.749     -38.758     -84.199
  P      157.743     -42.516     -83.264
  C      156.005     -44.402     -82.881
  O      156.551     -43.456     -83.789
  O      158.610     -43.480     -82.327
  O      158.561     -41.882     -84.340
  H      159.552     -43.230     -82.359
  H      155.226     -44.953     -83.365
  H      155.604     -43.890     -82.031
  H      156.773     -45.075     -82.563

 6  7  8  9  10  11  12  13  14  15  16  26  30  31  32  33  35 0
 6-311+G(2d,p)
 ****
 37  38 0
 6-311+G(2d,p)
 ****
 1  2  3  4  5  17  18  19  20  21  22  23  24  25 0
 3-21G
 ****
 27  28  29  34  36  39  40  41  42  43  44  45  46 0
 3-21G
 ****


