%nproc=1
%NoSave
%Mem=1900MB
#P OB98/GEN NMR

erre ene a

0 1
  C      -12.935      48.086      42.610
  O      -12.613      47.606      41.305
  P      -11.715      46.285      41.168
  C      -13.650      44.589      41.314
  O      -12.614      45.134      40.503
  C      -13.657      43.063      41.231
  O      -14.533      42.479      42.215
  C      -14.146      42.536      39.893
  O      -13.161      42.707      38.888
  C      -14.474      41.093      40.240
  O      -13.293      40.275      40.220
  C      -15.003      41.219      41.686
  N      -16.452      41.108      41.782
  C      -16.982      39.828      41.582
  O      -16.243      38.885      41.304
  N      -18.341      39.657      41.688
  C      -19.100      40.675      41.959
  N      -20.437      40.446      42.056
  C      -18.580      42.040      42.165
  C      -17.261      42.184      42.055
  O      -10.970      45.880      42.397
  O      -10.706      46.665      39.978
  H      -12.726      40.602      40.947
  H       -9.862      46.190      40.118
  H      -19.253      42.853      42.396
  H      -16.795      43.155      42.186
  H      -14.567      40.437      42.320
  H      -15.183      40.654      39.531
  H      -15.064      43.064      39.601
  H      -12.634      42.705      41.420
  H      -20.769      39.502      41.899
  H      -14.615      44.985      40.988
  H      -21.104      41.160      42.313
  H      -13.504      44.927      42.346
  P      -13.652      42.764      37.364
  C      -14.573      45.180      37.177
  O      -13.528      44.280      36.866
  O      -15.236      42.545      37.490
  O      -13.036      41.740      36.468
  H      -15.560      42.050      36.716
  H      -14.203      46.201      37.054
  H      -14.917      45.053      38.206
  H      -15.408      45.024      36.489
  H      -13.535      48.968      42.528
  H      -12.033      48.316      43.138
  H      -13.478      47.334      43.143

 3  4  5  6  7  8  9  10  11  12  13  23  27  28  29  30  32 0
 6-311+G(2d,p)
 ****
 34  35 0
 6-311+G(2d,p)
 ****
 1  2  14  15  16  17  18  19  20  21  22  24  25  26 0
 3-21G
 ****
 31  33  36  37  38  39  40  41  42  43  44  45  46 0
 3-21G
 ****


