%nproc=1
%NoSave
%Mem=1900MB
#P OB98/GEN NMR

erre ene a

0 1
  C      518.738      23.132     211.088
  O      517.530      23.347     210.383
  H      519.399      23.982     210.914
  H      519.228      22.226     210.723
  H      518.551      23.046     212.163
  P      516.310      22.335     210.614
  C      515.477      23.822     212.553
  O      515.840      22.512     212.140
  C      513.952      23.950     212.676
  O      513.467      22.903     213.577
  C      513.474      25.297     213.258
  O      512.187      25.568     212.682
  C      513.364      24.956     214.732
  O      512.678      25.943     215.467
  C      512.714      23.571     214.616
  N      512.721      22.774     215.837
  C      511.880      23.175     216.872
  O      511.126      24.152     216.833
  N      511.921      22.403     218.005
  C      512.695      21.291     218.195
  O      512.668      20.623     219.221
  C      513.563      20.924     217.069
  C      513.535      21.660     215.956
  O      516.546      20.926     210.188
  O      515.109      23.005     209.790
  H      514.994      22.538     208.942
  H      512.582      25.642     216.390
  H      511.319      22.680     218.769
  H      514.199      20.050     217.189
  H      514.166      21.410     215.105
  H      511.684      23.665     214.252
  H      514.361      24.888     215.169
  H      514.153      26.127     213.031
  H      513.502      23.757     211.696
  H      515.847      24.537     211.813
  H      515.949      24.037     213.521
  P      511.772      26.986     212.058
  C      512.468      26.444     209.615
  O      512.699      27.254     210.769
  O      511.778      28.109     213.038
  O      510.312      26.775     211.431
  H      509.833      27.625     211.417
  H      513.148      26.726     208.839
  H      511.463      26.584     209.276
  H      512.620      25.415     209.865

 6  7  8  9  10  11  12  13  14  15  16  27  31  32  33  34  35 0
 6-311+G(2d,p)
 ****
 36  37 0
 6-311+G(2d,p)
 ****
 1  2  3  4  5  17  18  19  20  21  22  23  24  25 0
 3-21G
 ****
 26  28  29  30  38  39  40  41  42  43  44  45 0
 3-21G
 ****


