%nproc=1
%NoSave
%Mem=1900MB
#P OB98/GEN NMR

erre ene a

0 1
  C      128.439     306.798      32.223
  O      129.483     307.548      32.869
  P      131.001     307.039      32.741
  C      130.906     304.974      34.333
  O      131.090     305.463      33.011
  C      131.363     303.510      34.455
  O      131.382     303.111      35.860
  C      130.473     302.501      33.716
  O      131.328     301.440      33.260
  C      129.555     302.002      34.817
  O      128.939     300.760      34.514
  C      130.545     301.942      35.987
  N      129.909     301.896      37.306
  C      129.509     300.655      37.795
  O      129.595     299.604      37.167
  N      128.961     300.662      39.054
  C      128.745     301.758      39.836
  O      128.222     301.698      40.943
  C      129.163     303.044      39.255
  C      129.715     303.051      38.042
  O      131.669     307.649      34.063
  O      131.733     307.515      31.526
  H      129.614     300.062      34.613
  H      132.527     308.063      33.840
  H      128.680     299.769      39.429
  H      129.012     303.940      39.846
  H      130.046     303.988      37.599
  H      131.197     301.067      35.872
  H      128.758     302.734      34.988
  H      129.934     302.945      32.869
  H      132.397     303.447      34.096
  H      129.846     305.041      34.597
  H      131.472     305.605      35.028
  P      131.914     301.520      31.769
  C      130.618     299.446      30.842
  O      130.840     300.837      30.797
  O      133.082     300.420      31.863
  O      132.415     302.873      31.369
  H      132.789     299.603      32.299
  H      130.605     299.078      31.874
  H      131.399     298.927      30.278
  H      129.648     299.228      30.385
  H      127.496     307.269      32.406
  H      128.422     305.802      32.613
  H      128.623     306.765      31.169

 3  4  5  6  7  8  9  10  11  12  13  23  28  29  30  31  32 0
 6-311+G(2d,p)
 ****
 33  34 0
 6-311+G(2d,p)
 ****
 1  2  14  15  16  17  18  19  20  21  22  24  25  26 0
 3-21G
 ****
 27  35  36  37  38  39  40  41  42  43  44  45 0
 3-21G
 ****


