%nproc=1
%NoSave
%Mem=1900MB
#P OB98/GEN NMR

erre ene a

0 1
  C      450.180    -939.960     -86.452
  O      450.013    -941.058     -85.559
  P      448.577    -941.416     -84.965
  C      448.152    -943.748     -86.103
  O      447.834    -942.367     -85.997
  C      447.692    -944.269     -87.476
  O      448.514    -943.738     -88.517
  C      447.747    -945.790     -87.551
  O      446.496    -946.361     -87.201
  C      448.168    -946.027     -88.977
  O      447.030    -945.940     -89.856
  C      449.139    -944.852     -89.243
  N      450.525    -944.972     -88.773
  C      451.537    -944.288     -89.465
  O      451.320    -943.550     -90.432
  N      452.810    -944.488     -89.002
  C      453.150    -945.234     -87.902
  O      454.317    -945.605     -87.650
  C      452.037    -945.699     -87.087
  C      450.797    -945.583     -87.553
  O      447.771    -940.022     -85.097
  O      448.569    -941.938     -83.561
  H      446.414    -946.668     -89.586
  H      447.771    -939.560     -84.262
  H      453.556    -944.099     -89.561
  H      452.273    -946.180     -86.133
  H      449.952    -945.946     -86.975
  H      449.150    -944.584     -90.296
  H      448.592    -947.039     -89.099
  H      448.534    -946.169     -86.874
  H      446.662    -943.917     -87.647
  H      447.676    -944.317     -85.295
  H      449.238    -943.882     -85.989
  P      446.233    -946.863     -85.704
  C      443.782    -946.096     -85.757
  O      445.063    -945.901     -85.148
  O      447.446    -946.968     -84.843
  O      445.530    -948.286     -85.915
  H      446.210    -949.007     -85.816
  H      443.042    -945.540     -85.185
  H      443.504    -947.143     -85.781
  H      443.801    -945.690     -86.787
  H      451.209    -939.885     -86.736
  H      449.877    -939.056     -85.966
  H      449.579    -940.115     -87.324

 3  4  5  6  7  8  9  10  11  12  13  23  28  29  30  31  32 0
 6-311+G(2d,p)
 ****
 33  34 0
 6-311+G(2d,p)
 ****
 1  2  14  15  16  17  18  19  20  21  22  24  25  26  27 0
 3-21G
 ****
 35  36  37  38  39  40  41  42  43  44  45 0
 3-21G
 ****


