%nproc=1
%NoSave
%Mem=1900MB
#P OB98/GEN NMR

erre ene a

0 1
  C      386.100     653.990    -741.818
  O      385.622     655.016    -742.670
  P      384.833     656.309    -742.155
  C      386.711     658.063    -742.577
  O      385.925     657.364    -741.623
  C      386.224     659.484    -742.834
  O      386.278     660.247    -741.605
  C      387.179     660.191    -743.817
  O      387.034     660.012    -745.206
  C      387.201     661.649    -743.354
  O      386.318     662.481    -744.117
  C      386.727     661.577    -741.898
  N      388.407     665.168    -738.719
  C      387.162     665.027    -739.319
  N      386.331     666.100    -739.180
  N      386.791     663.981    -739.973
  C      387.759     663.035    -740.101
  C      389.004     663.034    -739.542
  C      389.409     664.193    -738.765
  O      390.529     664.380    -738.303
  N      389.753     661.950    -739.944
  C      388.952     661.295    -740.766
  N      387.748     661.941    -740.928
  O      383.605     656.058    -741.348
  O      384.374     656.976    -743.545
  H      386.702     662.615    -744.988
  H      383.502     657.399    -743.405
  H      388.675     666.030    -738.275
  H      389.213     660.398    -741.296
  H      385.872     662.256    -741.733
  H      388.201     662.081    -743.470
  H      386.650     666.977    -738.806
  H      388.178     659.821    -743.607
  H      385.490     666.101    -739.755
  H      385.177     659.492    -743.143
  H      386.708     657.466    -743.485
  H      387.755     658.102    -742.212
  P      388.166     660.194    -746.320
  C      388.972     657.770    -746.534
  O      389.289     659.086    -746.082
  O      388.915     661.556    -745.886
  O      387.663     660.291    -747.718
  H      389.365     661.949    -746.650
  H      389.651     657.055    -746.063
  H      389.101     657.711    -747.632
  H      387.937     657.512    -746.269
  H      386.591     653.241    -742.403
  H      385.278     653.551    -741.293
  H      386.792     654.404    -741.115

 3  4  5  6  7  8  9  10  11  12  23  26  30  31 0
 6-311+G(2d,p)
 ****
 33  35  36  37  38 0
 6-311+G(2d,p)
 ****
 1  2  13  14  15  16  17  18  19  20  21  22  24  25 0
 3-21G
 ****
 27  28  29  32  34  39  40  41  42  43  44  45  46  47  48  49 0
 3-21G
 ****


