%nproc=1
%NoSave
%Mem=1900MB
#P OB98/GEN NMR

erre ene a

0 1
  C      169.620      89.008      91.533
  O      169.374      89.344      92.884
  H      168.663      88.928      91.012
  H      170.130      88.043      91.482
  H      170.225      89.777      91.044
  P      170.635      89.833      93.748
  C      170.355      92.127      92.570
  O      171.248      91.103      92.982
  C      171.135      93.358      92.118
  O      170.258      94.294      91.454
  C      171.806      94.128      93.250
  O      173.058      93.554      93.603
  C      171.995      95.486      92.595
  O      173.118      95.437      91.689
  C      170.689      95.640      91.802
  N      167.471      99.560      91.803
  C      168.477      99.240      90.913
  N      168.656     100.090      89.879
  N      169.243      98.186      91.025
  C      168.966      97.439      92.120
  C      168.000      97.655      93.077
  C      167.152      98.814      92.931
  O      166.239      99.136      93.688
  N      168.020      96.682      94.041
  C      169.009      95.891      93.680
  N      169.618      96.307      92.522
  O      171.712      88.675      93.488
  O      170.375      90.014      95.205
  H      172.954      94.699      91.073
  H      171.740      88.089      94.267
  H      166.917     100.388      91.676
  H      169.319      95.003      94.214
  H      170.835      96.191      90.866
  H      172.205      96.276      93.317
  H      168.117     100.931      89.745
  H      171.146      94.227      94.121
  H      169.385      99.873      89.211
  H      171.879      93.030      91.380
  H      169.706      92.395      93.410
  H      169.739      91.752      91.746
  P      173.794      94.090      94.923
  C      172.352      92.450      96.322
  O      172.817      93.783      96.161
  O      173.698      95.678      94.756
  O      175.205      93.644      95.090
  H      174.588      96.050      94.596
  H      171.716      92.395      97.181
  H      173.187      91.794      96.455
  H      171.803      92.156      95.452

 6  7  8  9  10  11  12  13  14  15  26  29  33  34 0
 6-311+G(2d,p)
 ****
 36  38  39  40  41 0
 6-311+G(2d,p)
 ****
 1  2  3  4  5  16  17  18  19  20  21  22  23  24  25 0
 3-21G
 ****
 27  28  30  31  32  35  37  42  43  44  45  46  47 0
 3-21G
 ****
 48  49 0
 3-21G
 ****


