%nproc=1
%NoSave
%Mem=1900MB
#P OB98/GEN NMR

erre ene a

0 1
  C      295.801     159.895    -319.593
  O      295.745     159.011    -318.487
  P      296.758     157.765    -318.486
  C      295.151     156.527    -316.856
  O      295.878     156.487    -318.082
  C      293.891     155.672    -316.961
  O      292.975     156.260    -317.906
  C      294.139     154.258    -317.453
  O      294.663     153.455    -316.413
  C      292.745     153.846    -317.908
  O      291.977     153.317    -316.814
  C      292.144     155.184    -318.405
  N      292.021     155.239    -319.851
  C      291.051     154.395    -320.412
  O      290.381     153.658    -319.686
  N      290.896     154.383    -321.776
  C      291.647     155.141    -322.515
  N      291.446     155.095    -323.861
  C      292.692     156.027    -321.967
  C      292.831     156.020    -320.642
  O      297.657     158.028    -317.190
  O      297.576     157.627    -319.728
  H      291.088     153.132    -317.180
  H      298.535     157.613    -317.288
  H      293.293     156.637    -322.627
  H      293.575     156.639    -320.156
  H      291.149     155.341    -317.973
  H      292.779     153.069    -318.676
  H      294.822     154.262    -318.311
  H      293.402     155.660    -315.978
  H      290.725     154.470    -324.205
  H      294.865     157.560    -316.642
  H      291.962     155.658    -324.517
  H      295.798     156.168    -316.049
  P      295.819     152.412    -316.789
  C      294.574     150.956    -315.080
  O      295.251     150.986    -316.321
  O      296.926     152.715    -315.671
  O      296.379     152.481    -318.169
  H      297.733     152.200    -315.855
  H      294.110     149.976    -314.957
  H      293.797     151.724    -315.050
  H      295.286     151.112    -314.264
  H      295.078     160.673    -319.465
  H      295.588     159.355    -320.492
  H      296.779     160.324    -319.657

 3  4  5  6  7  8  9  10  11  12  13  21  23  27  28  29  30  32 0
 6-311+G(2d,p)
 ****
 34  35 0
 6-311+G(2d,p)
 ****
 1  2  14  15  16  17  18  19  20  22  24  25  26 0
 3-21G
 ****
 31  33  36  37  38  39  40  41  42  43  44  45  46 0
 3-21G
 ****


