%nproc=1
%NoSave
%Mem=1900MB
#P OB98/GEN NMR

erre ene a

0 1
  C     -300.475     162.606    -448.507
  O     -300.489     163.240    -449.768
  H     -301.090     163.185    -447.812
  H     -299.451     162.574    -448.124
  H     -300.880     161.592    -448.573
  P     -299.914     162.407    -451.012
  C     -301.818     163.237    -452.569
  O     -300.418     163.149    -452.349
  C     -302.100     163.755    -453.977
  O     -301.796     165.174    -454.028
  C     -301.272     163.063    -455.071
  O     -302.092     162.889    -456.234
  C     -300.173     164.066    -455.371
  O     -299.639     163.923    -456.687
  C     -300.897     165.387    -455.133
  N     -297.024     168.038    -456.968
  C     -297.813     167.076    -457.570
  N     -297.520     166.769    -458.856
  N     -298.800     166.469    -456.966
  C     -298.998     166.904    -455.699
  C     -298.283     167.844    -454.989
  C     -297.174     168.486    -455.659
  O     -296.424     169.328    -455.174
  N     -298.774     167.983    -453.712
  C     -299.779     167.131    -453.652
  N     -299.960     166.458    -454.836
  O     -300.782     161.060    -450.983
  O     -298.451     162.116    -450.966
  H     -298.995     164.651    -456.823
  H     -300.202     160.300    -450.799
  H     -296.264     168.464    -457.477
  H     -300.402     166.954    -452.784
  H     -301.485     165.703    -456.000
  H     -299.350     163.932    -454.654
  H     -296.808     167.227    -459.396
  H     -300.877     162.096    -454.759
  H     -298.113     166.093    -459.327
  H     -303.175     163.654    -454.179
  H     -302.247     163.928    -451.833
  H     -302.267     162.248    -452.438
  P     -302.632     161.403    -456.526
  C     -305.009     162.061    -457.328
  O     -303.752     161.494    -457.675
  O     -303.467     161.052    -455.207
  O     -301.547     160.406    -456.769
  H     -302.988     160.395    -454.673
  H     -305.651     162.057    -458.184
  H     -304.866     163.067    -456.994
  H     -305.456     161.485    -456.545

 6  7  8  9  10  11  12  13  14  15  26  29  33  34 0
 6-311+G(2d,p)
 ****
 36  38  39  40  41 0
 6-311+G(2d,p)
 ****
 1  2  3  4  5  16  17  18  19  20  21  22  23  24  25 0
 3-21G
 ****
 27  28  30  31  32  35  37  42  43  44  45  46  47 0
 3-21G
 ****
 48  49 0
 3-21G
 ****


