%nproc=1
%NoSave
%Mem=1900MB
#P OB98/GEN NMR

erre ene a

0 1
  C      256.958    -286.958     388.014
  O      255.651    -287.414     388.298
  H      257.153    -287.092     386.949
  H      257.693    -287.536     388.583
  H      257.054    -285.895     388.258
  P      255.156    -287.283     389.818
  C      255.935    -289.609     390.689
  O      256.138    -288.202     390.696
  C      257.159    -290.315     391.262
  O      258.323    -289.997     390.458
  C      257.516    -289.879     392.676
  O      256.692    -290.492     393.656
  C      258.976    -290.303     392.759
  O      259.098    -291.693     393.090
  C      259.477    -290.049     391.331
  N      264.027    -287.904     392.217
  C      263.587    -289.183     392.335
  N      262.360    -289.670     392.070
  C      261.556    -288.705     391.603
  C      261.858    -287.368     391.421
  C      263.167    -286.970     391.744
  N      263.603    -285.676     391.643
  N      260.756    -286.676     390.960
  C      259.802    -287.580     390.854
  N      260.239    -288.821     391.232
  O      253.773    -288.091     389.820
  O      254.982    -285.883     390.308
  H      258.745    -292.189     392.320
  H      253.033    -287.462     389.769
  H      264.317    -289.892     392.713
  H      258.788    -287.389     390.528
  H      260.118    -290.864     390.966
  H      259.508    -289.736     393.519
  H      257.463    -288.785     392.761
  H      256.996    -291.396     391.213
  H      255.770    -289.947     389.660
  H      255.041    -289.839     391.284
  H      264.533    -285.448     391.955
  H      262.939    -284.944     391.404
  P      255.849    -289.535     394.623
  C      257.320    -289.990     396.733
  O      256.836    -289.043     395.789
  O      254.848    -290.538     395.374
  O      255.115    -288.434     393.930
  H      253.992    -290.097     395.527
  H      257.960    -289.498     397.435
  H      257.870    -290.753     396.223
  H      256.494    -290.431     397.251

 6  7  8  9  10  11  12  13  14  15  25  28  32  33  34  35 0
 6-311+G(2d,p)
 ****
 36  37  40 0
 6-311+G(2d,p)
 ****
 1  2  3  4  5  16  17  18  19  20  21  22  23  24 0
 3-21G
 ****
 26  27  29  30  31  38  39 41  42  43  44  45  46  47  48 0
 3-21G
 ****


