%nproc=1
%NoSave
%Mem=1900MB
#P OB98/GEN NMR

erre ene a

0 1
  C      165.473     -84.306     -21.350
  O      165.912     -85.113     -20.274
  H      165.889     -83.302     -21.230
  H      164.380     -84.238     -21.350
  H      165.823     -84.723     -22.301
  P      165.354     -86.619     -20.239
  C      163.713     -86.125     -18.287
  O      163.865     -86.532     -19.641
  C      162.497     -86.796     -17.658
  O      161.276     -86.303     -18.253
  C      162.473     -88.314     -17.797
  O      163.250     -88.929     -16.782
  C      160.983     -88.603     -17.654
  O      160.586     -88.591     -16.265
  C      160.354     -87.419     -18.409
  N      156.816     -88.685     -21.781
  C      156.747     -88.607     -20.406
  N      155.566     -88.945     -19.835
  N      157.749     -88.243     -19.645
  C      158.882     -87.994     -20.345
  C      159.077     -88.038     -21.707
  C      157.945     -88.386     -22.536
  O      157.918     -88.392     -23.768
  N      160.367     -87.695     -22.036
  C      160.954     -87.482     -20.875
  N      160.096     -87.654     -19.817
  O      166.188     -87.299     -19.051
  O      165.502     -87.386     -21.510
  H      159.624     -88.734     -16.211
  H      166.393     -88.221     -19.299
  H      156.006     -88.938     -22.316
  H      161.992     -87.191     -20.742
  H      159.402     -87.113     -17.961
  H      160.724     -89.589     -18.040
  H      154.879     -89.499     -20.321
  H      162.808     -88.625     -18.797
  H      155.542     -88.959     -18.823
  H      162.471     -86.507     -16.599
  H      163.588     -85.036     -18.258
  H      164.617     -86.397     -17.730
  P      164.265     -90.099     -17.204
  C      162.375     -91.858     -16.897
  O      163.395     -91.339     -17.741
  O      164.821     -90.612     -15.796
  O      165.382     -89.663     -18.098
  H      165.734     -90.294     -15.664
  H      161.887     -92.674     -17.388
  H      161.661     -91.090     -16.687
  H      162.810     -92.201     -15.982

 6  7  8  9  10  11  12  13  14  15  26  29  33  34 0
 6-311+G(2d,p)
 ****
 36  38  39  40  41 0
 6-311+G(2d,p)
 ****
 1  2  3  4  5  16  17  18  19  20  21  22  23  24  25 0
 3-21G
 ****
 27  28  30  31  32  35  37  42  43  44  45  46  47 0
 3-21G
 ****
 48  49 0
 3-21G
 ****


