%nproc=1
%NoSave
%Mem=1900MB
#P OB98/GEN NMR

erre ene a

0 1
  C      137.414     -72.142      61.544
  O      136.417     -72.666      62.406
  P      134.894     -72.222      62.149
  C      134.302     -71.577      64.603
  O      134.105     -72.475      63.523
  C      133.777     -72.182      65.907
  O      132.497     -72.813      65.641
  C      134.685     -73.247      66.533
  O      134.522     -73.154      67.953
  C      134.082     -74.547      66.035
  O      134.437     -75.663      66.844
  C      132.599     -74.194      66.049
  N      131.069     -78.918      65.092
  C      131.942     -78.449      66.057
  N      132.424     -79.365      66.924
  N      132.304     -77.198      66.165
  C      131.726     -76.397      65.237
  C      130.882     -76.747      64.211
  C      130.459     -78.127      64.127
  O      129.624     -78.570      63.343
  N      130.577     -75.672      63.421
  C      131.170     -74.658      64.016
  N      131.840     -75.039      65.147
  O      134.347     -73.371      61.182
  O      134.705     -70.852      61.579
  H      133.743     -76.344      66.735
  H      134.429     -73.110      60.243
  H      130.812     -79.891      65.071
  H      131.146     -73.633      63.683
  H      132.154     -74.290      67.049
  H      134.430     -74.748      65.014
  H      132.163     -80.339      66.920
  H      135.739     -73.138      66.263
  H      133.039     -79.042      67.662
  H      133.598     -71.366      66.617
  H      133.750     -70.654      64.400
  H      135.365     -71.332      64.687
  P      135.842     -73.064      68.856
  C      135.307     -74.779      70.722
  O      135.426     -73.418      70.359
  O      136.125     -71.486      68.916
  O      137.025     -73.795      68.312
  H      137.086     -71.329      68.973
  H      135.419     -74.866      71.806
  H      136.072     -75.393      70.239
  H      134.317     -75.145      70.439
  H      138.371     -72.522      61.833
  H      137.419     -71.074      61.612
  H      137.204     -72.434      60.536

 3  4  5  6  7  8  9  10  11  12  23  26  30  31 0
 6-311+G(2d,p)
 ****
 33  35  36  37  38 0
 6-311+G(2d,p)
 ****
 1  2  13  14  15  16  17  18  19  20  21  22  24  25 0
 3-21G
 ****
 27  28  29  32  34  39  40  41  42  43  44  45  46  47  48  49 0
 3-21G
 ****


