%nproc=1
%NoSave
%Mem=1900MB
#P OB98/GEN NMR

erre ene a

0 1
  C      -11.117     -45.779      69.779
  O      -10.478     -46.802      69.015
  P      -11.159     -48.251      68.943
  C      -11.385     -48.090      66.382
  O      -12.058     -48.317      67.616
  C      -12.386     -47.783      65.267
  O      -13.147     -46.592      65.548
  C      -11.727     -47.533      63.921
  O      -11.273     -48.745      63.345
  C      -12.847     -46.834      63.166
  O      -13.776     -47.787      62.623
  C      -13.527     -46.010      64.282
  N      -13.204     -44.593      64.227
  C      -14.048     -43.801      63.441
  O      -14.974     -44.315      62.813
  N      -13.809     -42.451      63.374
  C      -12.812     -41.940      64.029
  N      -12.625     -40.597      63.929
  C      -11.892     -42.742      64.858
  C      -12.140     -44.049      64.906
  O      -11.834     -48.710      70.193
  O       -9.923     -49.205      68.570
  H      -13.244     -48.403      62.082
  H      -10.083     -50.090      68.951
  H      -11.079     -42.268      65.389
  H      -11.512     -44.712      65.490
  H      -14.619     -46.107      64.213
  H      -12.466     -46.243      62.328
  H      -10.882     -46.844      64.046
  H      -13.081     -48.631      65.190
  H      -13.262     -40.072      63.344
  H      -10.796     -48.973      66.120
  H      -11.909     -40.100      64.439
  H      -10.676     -47.266      66.513
  P       -9.804     -49.251      63.735
  C      -10.591     -51.498      64.757
  O       -9.945     -50.259      64.970
  O       -9.140     -47.949      64.396
  O       -8.987     -49.749      62.588
  H       -8.188     -47.929      64.193
  H      -10.329     -52.174      65.577
  H      -10.280     -51.954      63.814
  H      -11.674     -51.353      64.755
  H      -10.539     -44.880      69.725
  H      -11.195     -46.092      70.799
  H      -12.095     -45.598      69.385

 3  4  5  6  7  8  9  10  11  12  13  23  27  28  29  30  32 0
 6-311+G(2d,p)
 ****
 34  35 0
 6-311+G(2d,p)
 ****
 1  2  14  15  16  17  18  19  20  21  22  24  25  26 0
 3-21G
 ****
 31  33  36  37  38  39  40  41  42  43  44  45  46 0
 3-21G
 ****


