%nproc=1
%NoSave
%Mem=1900MB
#P OB98/GEN NMR

erre ene a

0 1
  C       54.458    -276.481    -285.851
  O       55.757    -275.997    -285.578
  H       54.526    -277.288    -286.586
  H       53.854    -275.672    -286.273
  H       53.984    -276.865    -284.946
  P       55.947    -275.102    -284.261
  C       58.310    -276.092    -283.849
  O       57.532    -274.921    -284.051
  C       59.771    -275.717    -283.584
  O       60.315    -275.090    -284.782
  C       59.966    -274.746    -282.412
  O       61.177    -275.093    -281.720
  C       60.186    -273.415    -283.114
  O       60.892    -272.486    -282.301
  C       60.949    -273.872    -284.348
  N       63.837    -270.455    -286.634
  C       64.168    -271.471    -285.760
  N       65.461    -271.567    -285.394
  N       63.303    -272.334    -285.290
  C       62.048    -272.143    -285.759
  C       61.588    -271.170    -286.610
  C       62.550    -270.214    -287.118
  O       62.313    -269.276    -287.869
  N       60.229    -271.275    -286.797
  C       59.870    -272.293    -286.031
  N       60.939    -272.851    -285.383
  O       55.522    -276.106    -283.088
  O       55.155    -273.838    -284.226
  H       60.273    -272.132    -281.634
  H       54.581    -275.971    -282.863
  H       64.539    -269.812    -286.955
  H       58.856    -272.646    -285.899
  H       62.008    -274.093    -284.133
  H       59.218    -272.979    -283.383
  H       66.198    -270.968    -285.738
  H       59.128    -274.728    -281.708
  H       65.735    -272.337    -284.790
  H       60.341    -276.646    -283.420
  H       58.258    -276.713    -284.752
  H       57.906    -276.660    -283.011
  P       61.055    -275.913    -280.347
  C       63.178    -277.358    -280.751
  O       62.513    -276.418    -279.919
  O       60.318    -277.262    -280.802
  O       60.283    -275.201    -279.284
  H       59.726    -277.575    -280.085
  H       64.134    -277.593    -280.331
  H       63.310    -276.940    -281.727
  H       62.591    -278.250    -280.822

 6  7  8  9  10  11  12  13  14  15  26  29  33  34 0
 6-311+G(2d,p)
 ****
 36  38  39  40  41 0
 6-311+G(2d,p)
 ****
 1  2  3  4  5  16  17  18  19  20  21  22  23  24  25 0
 3-21G
 ****
 27  28  30  31  32  35  37  42  43  44  45  46  47 0
 3-21G
 ****
 48  49 0
 3-21G
 ****


