%nproc=1
%NoSave
%Mem=1900MB
#P OB98/GEN NMR

erre ene a

0 1
  C      400.096     615.307    -188.054
  O      399.284     615.506    -189.199
  P      398.641     614.198    -189.893
  C      400.209     613.271    -191.733
  O      399.171     614.181    -191.407
  C      400.591     613.372    -193.225
  O      399.470     612.909    -194.021
  C      400.936     614.793    -193.677
  O      401.998     614.700    -194.633
  C      399.676     615.257    -194.385
  O      399.961     616.285    -195.337
  C      399.163     613.943    -194.979
  N      397.744     613.979    -195.282
  C      397.332     614.831    -196.321
  O      398.148     615.561    -196.883
  N      395.996     614.870    -196.659
  C      395.137     614.213    -195.941
  N      393.826     614.279    -196.323
  C      395.515     613.397    -194.765
  C      396.816     613.320    -194.510
  O      397.101     614.606    -190.038
  O      398.826     612.938    -189.115
  H      399.112     616.627    -195.698
  H      396.519     613.823    -189.961
  H      394.749     612.896    -194.185
  H      397.192     612.724    -193.668
  H      399.714     613.697    -195.914
  H      398.961     615.649    -193.657
  H      401.251     615.450    -192.855
  H      401.426     612.695    -193.409
  H      393.596     614.856    -197.119
  H      399.871     612.248    -191.553
  H      393.092     613.796    -195.825
  H      401.086     613.461    -191.104
  P      403.404     615.378    -194.264
  C      403.257     617.604    -195.539
  O      403.774     616.289    -195.531
  O      404.415     614.146    -194.449
  O      403.557     615.997    -192.917
  H      405.319     614.415    -194.183
  H      403.696     618.157    -196.377
  H      403.507     618.127    -194.606
  H      402.166     617.582    -195.665
  H      400.453     616.252    -187.701
  H      400.928     614.685    -188.311
  H      399.520     614.834    -187.286

 3  4  5  6  7  8  9  10  11  12  13  21  23  27  28  29  30  32 0
 6-311+G(2d,p)
 ****
 34  35 0
 6-311+G(2d,p)
 ****
 1  2  14  15  16  17  18  19  20  22  24  25  26 0
 3-21G
 ****
 31  33  36  37  38  39  40  41  42  43  44  45  46 0
 3-21G
 ****


