%nproc=1
%NoSave
%Mem=1900MB
#P OB98/GEN NMR

erre ene a

0 1
  C      203.423    -701.472    -280.833
  O      204.432    -701.682    -279.862
  H      203.047    -700.449    -280.730
  H      202.603    -702.170    -280.671
  H      203.833    -701.600    -281.841
  P      205.188    -703.098    -279.895
  C      207.700    -703.428    -279.347
  O      206.437    -702.970    -278.891
  C      208.795    -703.103    -278.328
  O      208.956    -701.652    -278.248
  C      208.511    -703.614    -276.909
  O      209.754    -704.004    -276.309
  C      208.006    -702.368    -276.194
  O      208.143    -702.458    -274.772
  C      208.897    -701.312    -276.847
  N      208.499    -697.587    -273.477
  C      209.133    -698.816    -273.393
  N      209.749    -699.102    -272.219
  N      209.145    -699.694    -274.355
  C      208.516    -699.265    -275.487
  C      207.856    -698.071    -275.701
  C      207.816    -697.129    -274.595
  O      207.258    -696.032    -274.612
  N      207.324    -698.029    -276.963
  C      207.657    -699.183    -277.509
  N      208.382    -699.967    -276.647
  O      205.867    -703.098    -281.348
  O      204.318    -704.295    -279.686
  H      207.836    -701.609    -274.388
  H      205.288    -703.541    -281.992
  H      208.506    -696.955    -272.695
  H      207.407    -699.503    -278.514
  H      209.920    -701.321    -276.451
  H      206.953    -702.193    -276.426
  H      209.811    -698.459    -271.443
  H      207.799    -704.452    -276.862
  H      210.246    -699.984    -272.148
  H      209.749    -703.506    -278.699
  H      207.940    -702.932    -280.296
  H      207.657    -704.515    -279.518
  P      210.309    -705.478    -276.608
  C      212.680    -706.465    -277.038
  O      211.898    -705.469    -276.389
  O      210.165    -705.599    -278.201
  O      209.566    -706.567    -275.900
  H      210.052    -706.537    -278.453
  H      213.712    -706.324    -276.793
  H      212.551    -706.386    -278.097
  H      212.365    -707.434    -276.712

 6  7  8  9  10  11  12  13  14  15  26  29  33  34 0
 6-311+G(2d,p)
 ****
 36  38  39  40  41 0
 6-311+G(2d,p)
 ****
 1  2  3  4  5  16  17  18  19  20  21  22  23  24  25 0
 3-21G
 ****
 27  28  30  31  32  35  37  42  43  44  45  46  47 0
 3-21G
 ****
 48  49 0
 3-21G
 ****


