%nproc=1
%NoSave
%Mem=1900MB
#P OB98/GEN NMR

erre ene a

0 1
  C     1534.640     993.338     580.207
  O     1534.130     994.200     579.184
  P     1535.051     994.363     577.864
  C     1533.015     993.574     576.413
  O     1534.377     993.403     576.760
  C     1532.834     993.369     574.906
  O     1533.393     994.484     574.173
  C     1533.521     992.121     574.369
  O     1532.805     990.945     574.727
  C     1533.545     992.448     572.867
  O     1532.260     992.143     572.280
  C     1533.769     993.966     572.869
  N     1535.150     994.321     572.542
  C     1535.579     994.050     571.250
  O     1534.832     993.523     570.403
  N     1536.842     994.390     570.951
  C     1537.772     994.953     571.799
  O     1538.891     995.249     571.464
  C     1537.281     995.188     573.168
  C     1536.016     994.865     573.475
  O     1536.380     993.605     578.296
  O     1535.245     995.786     577.456
  H     1536.208     992.842     578.878
  H     1532.151     991.176     572.357
  H     1537.155     994.233     569.979
  H     1537.979     995.579     573.892
  H     1535.661     994.998     574.489
  H     1533.122     994.455     572.157
  H     1534.282     991.870     572.330
  H     1534.543     992.081     574.746
  H     1531.753     993.336     574.693
  H     1532.673     994.576     576.692
  H     1532.410     992.859     576.994
  P     1533.648     989.747     575.360
  C     1532.185     989.564     577.529
  O     1533.439     989.862     576.950
  O     1535.153     990.260     575.145
  O     1533.337     988.403     574.783
  H     1535.250     991.218     575.339
  H     1532.328     989.374     578.602
  H     1531.738     988.678     577.078
  H     1531.503     990.421     577.430
  H     1533.951     993.308     581.025
  H     1535.583     993.710     580.549
  H     1534.767     992.352     579.812

 3  4  5  6  7  8  9  10  11  12  13  24  28  29  30  31  32 0
 6-311+G(2d,p)
 ****
 33  34 0
 6-311+G(2d,p)
 ****
 1  2  14  15  16  17  18  19  20  21  22  23  25  26  27 0
 3-21G
 ****
 35  36  37  38  39  40  41  42  43  44  45 0
 3-21G
 ****


