%nproc=1
%NoSave
%Mem=1900MB
#P OB98/GEN NMR

erre ene a

0 1
  C     -456.067    -461.304      76.290
  O     -454.768    -460.762      76.330
  H     -455.990    -462.393      76.311
  H     -456.575    -461.015      75.367
  H     -456.648    -460.976      77.159
  P     -454.573    -459.168      76.266
  C     -452.397    -459.545      74.952
  O     -452.990    -458.940      76.097
  C     -450.992    -460.073      75.271
  O     -450.139    -458.960      75.646
  C     -450.967    -461.088      76.423
  O     -450.175    -462.220      76.049
  C     -450.276    -460.332      77.551
  O     -449.652    -461.191      78.496
  C     -449.342    -459.419      76.757
  N     -448.830    -458.318      77.563
  C     -447.596    -458.539      78.193
  O     -447.008    -459.610      78.043
  N     -447.094    -457.569      79.018
  C     -447.783    -456.487      79.232
  N     -447.237    -455.575      80.080
  C     -449.094    -456.235      78.615
  C     -449.553    -457.177      77.794
  O     -455.210    -458.421      77.389
  O     -455.147    -458.744      74.829
  H     -450.342    -461.734      78.931
  H     -455.386    -457.789      74.853
  H     -449.636    -455.319      78.831
  H     -450.513    -457.075      77.289
  H     -448.491    -459.985      76.355
  H     -451.023    -459.726      78.082
  H     -451.960    -461.433      76.712
  H     -450.567    -460.499      74.353
  H     -446.342    -455.799      80.487
  H     -452.359    -458.798      74.150
  H     -447.691    -454.712      80.345
  H     -453.033    -460.383      74.643
  P     -450.747    -463.656      76.470
  C     -448.706    -464.920      77.462
  O     -449.555    -464.726      76.341
  O     -451.731    -464.029      75.265
  O     -451.465    -463.649      77.780
  H     -452.660    -463.995      75.572
  H     -447.967    -465.657      77.226
  H     -449.287    -465.253      78.296
  H     -448.224    -463.997      77.708

 6  7  8  9  10  11  12  13  14  15  16  26  30  31  32  33  35 0
 6-311+G(2d,p)
 ****
 37  38 0
 6-311+G(2d,p)
 ****
 1  2  3  4  5  17  18  19  20  21  22  23  24  25 0
 3-21G
 ****
 27  28  29  34  36  39  40  41  42  43  44  45  46 0
 3-21G
 ****


