%nproc=1
%NoSave
%Mem=1900MB
#P OB98/GEN NMR

erre ene a

0 1
  C      135.628    -454.832    -640.535
  O      136.592    -455.514    -641.322
  H      135.451    -453.843    -640.974
  H      136.007    -454.698    -639.506
  H      134.689    -455.394    -640.517
  P      137.038    -456.963    -640.791
  C      134.980    -458.329    -641.602
  O      136.350    -458.031    -641.794
  C      134.437    -459.131    -642.780
  O      134.237    -458.282    -643.953
  C      135.342    -460.291    -643.232
  O      135.121    -461.439    -642.433
  C      134.887    -460.471    -644.668
  O      133.661    -461.236    -644.738
  C      134.636    -459.018    -645.130
  N      136.323    -456.847    -649.375
  C      135.122    -457.458    -649.111
  N      134.242    -457.553    -650.137
  N      134.800    -457.977    -647.940
  C      135.801    -457.877    -647.018
  C      137.037    -457.290    -647.158
  C      137.343    -456.663    -648.426
  O      138.374    -456.026    -648.714
  N      137.775    -457.351    -645.993
  C      136.984    -458.033    -645.168
  N      135.779    -458.367    -645.746
  O      136.196    -457.134    -639.442
  O      138.503    -457.147    -640.545
  H      132.999    -460.830    -644.159
  H      136.752    -457.606    -638.782
  H      136.497    -456.442    -650.269
  H      137.237    -458.277    -644.151
  H      133.815    -458.957    -645.863
  H      135.637    -461.015    -645.253
  H      134.525    -457.442    -651.096
  H      136.391    -459.965    -643.212
  H      133.392    -458.080    -649.952
  H      133.429    -459.512    -642.498
  H      134.423    -457.369    -641.531
  H      134.835    -458.888    -640.675
  P      136.373    -462.376    -642.111
  C      135.949    -462.295    -639.536
  O      136.113    -463.115    -640.702
  O      137.547    -461.326    -641.754
  O      136.765    -463.275    -643.241
  H      138.183    -461.270    -642.516
  H      135.785    -462.918    -638.682
  H      135.108    -461.647    -639.671
  H      136.831    -461.708    -639.386

 6  7  8  9  10  11  12  13  14  15  26  29  33  34 0
 6-311+G(2d,p)
 ****
 36  38  39  40  41 0
 6-311+G(2d,p)
 ****
 1  2  3  4  5  16  17  18  19  20  21  22  23  24  25 0
 3-21G
 ****
 27  28  30  31  32  35  37  42  43  44  45  46  47 0
 3-21G
 ****
 48  49 0
 3-21G
 ****


