%nproc=1
%NoSave
%Mem=1900MB
#P OB98/GEN NMR

erre ene a

0 1
  C      755.716     284.863    -202.727
  O      756.412     285.850    -203.475
  P      755.665     287.172    -204.004
  C      755.536     286.439    -206.468
  O      754.816     286.683    -205.274
  C      754.598     285.928    -207.570
  O      753.867     284.792    -207.046
  C      753.518     286.916    -208.032
  O      753.957     287.834    -209.019
  C      752.505     285.948    -208.639
  O      752.944     285.548    -209.949
  C      752.554     284.769    -207.663
  N      749.295     282.037    -204.815
  C      750.222     281.671    -205.737
  N      751.027     282.469    -206.469
  C      750.862     283.755    -206.135
  C      749.977     284.279    -205.221
  C      749.151     283.346    -204.532
  N      748.230     283.732    -203.573
  N      750.061     285.653    -205.166
  C      751.024     285.953    -206.034
  N      751.536     284.841    -206.637
  O      756.563     288.333    -204.241
  O      754.544     287.463    -202.895
  H      753.818     285.145    -209.850
  H      754.222     288.373    -202.986
  H      750.311     280.602    -205.934
  H      751.358     286.950    -206.242
  H      752.459     283.806    -208.173
  H      751.508     286.417    -208.763
  H      753.058     287.436    -207.178
  H      755.202     285.583    -208.413
  H      756.301     285.675    -206.268
  H      747.791     282.977    -203.053
  H      748.240     284.673    -203.246
  H      756.044     287.352    -206.784
  P      753.092     289.182    -209.212
  C      752.015     288.433    -211.489
  O      751.836     288.762    -210.121
  O      753.863     290.350    -209.711
  O      752.443     289.394    -207.766
  H      751.791     288.719    -207.489
  H      751.075     288.035    -211.885
  H      752.805     287.695    -211.610
  H      752.258     289.357    -212.049
  H      756.387     284.070    -202.472
  H      754.910     284.474    -203.313
  H      755.327     285.302    -201.832

 3  4  5  6  7  8  9  10  11  12  22  25  29  30  31  32 0
 6-311+G(2d,p)
 ****
 33  36  37 0
 6-311+G(2d,p)
 ****
 1  2  13  14  15  16  17  18  19  20  21  23  24  26 0
 3-21G
 ****
 27  28  34  35  38  39  40  41  42  43  44  45  46  47  48 0
 3-21G
 ****


