%nproc=1
%NoSave
%Mem=1900MB
#P OB98/GEN NMR

erre ene a

0 1
  C     -294.096     173.506    -506.411
  O     -295.008     172.682    -507.139
  P     -295.971     173.415    -508.192
  C     -294.628     172.798    -510.318
  O     -295.092     173.836    -509.471
  C     -294.176     173.343    -511.680
  O     -295.325     173.716    -512.493
  C     -293.286     174.588    -511.574
  O     -292.348     174.546    -512.655
  C     -294.258     175.728    -511.816
  O     -293.581     176.921    -512.205
  C     -295.154     175.097    -512.879
  N     -297.708     178.869    -515.185
  C     -296.431     178.445    -515.292
  N     -295.821     177.443    -514.622
  C     -296.686     176.832    -513.799
  C     -298.016     177.157    -513.574
  C     -298.529     178.239    -514.310
  N     -299.818     178.689    -514.184
  N     -298.563     176.326    -512.617
  C     -297.581     175.515    -512.272
  N     -296.441     175.761    -512.981
  O     -296.294     174.813    -507.480
  O     -297.222     172.659    -508.499
  H     -292.999     176.709    -512.968
  H     -297.214     174.819    -507.164
  H     -295.813     178.985    -516.005
  H     -297.645     174.749    -511.511
  H     -294.704     175.119    -513.880
  H     -294.823     175.933    -510.902
  H     -292.751     174.690    -510.624
  H     -293.639     172.551    -512.208
  H     -295.420     172.058    -510.477
  H     -300.101     179.489    -514.729
  H     -300.429     178.254    -513.503
  H     -293.816     172.264    -509.817
  P     -290.814     174.820    -512.289
  C     -289.967     172.455    -512.924
  O     -290.183     173.401    -511.897
  O     -290.895     175.598    -510.891
  O     -290.070     175.601    -513.323
  H     -290.103     176.162    -510.773
  H     -289.011     171.952    -512.741
  H     -289.943     172.913    -513.916
  H     -290.765     171.710    -512.895
  H     -293.517     172.898    -505.748
  H     -294.644     174.230    -505.844
  H     -293.444     174.008    -507.095

 3  4  5  6  7  8  9  10  11  12  22  25  29  30  31  32 0
 6-311+G(2d,p)
 ****
 33  36  37 0
 6-311+G(2d,p)
 ****
 1  2  13  14  15  16  17  18  19  20  21  23  24  26 0
 3-21G
 ****
 27  28  34  35  38  39  40  41  42  43  44  45  46  47  48 0
 3-21G
 ****


