%nproc=1
%NoSave
%Mem=1900MB
#P OB98/GEN NMR

erre ene a

0 1
  C     -379.430     -72.742     351.208
  O     -378.889     -71.435     351.103
  P     -378.883     -70.653     349.704
  C     -381.295     -69.985     350.296
  O     -380.427     -70.515     349.298
  C     -382.506     -69.329     349.642
  O     -382.083     -68.073     349.057
  C     -383.148     -70.104     348.491
  O     -384.081     -71.096     348.897
  C     -383.888     -68.986     347.771
  O     -385.109     -68.678     348.469
  C     -382.902     -67.817     347.888
  N     -382.666     -66.264     343.019
  C     -383.659     -66.223     343.935
  N     -383.650     -66.674     345.204
  C     -382.443     -67.179     345.517
  C     -381.338     -67.282     344.695
  C     -381.478     -66.798     343.384
  N     -380.456     -66.821     342.460
  N     -380.283     -67.878     345.367
  C     -380.750     -68.109     346.579
  N     -382.046     -67.695     346.721
  O     -377.990     -71.244     348.668
  O     -378.478     -69.156     350.089
  H     -385.503     -67.907     348.024
  H     -378.190     -68.668     349.293
  H     -384.591     -65.770     343.600
  H     -380.190     -68.573     347.375
  H     -383.404     -66.857     348.041
  H     -384.164     -69.248     346.745
  H     -382.390     -70.527     347.821
  H     -383.243     -69.108     350.421
  H     -380.741     -69.234     350.863
  H     -380.609     -66.335     341.591
  H     -379.530     -67.066     342.784
  H     -381.598     -70.781     350.977
  P     -384.470     -72.224     347.818
  C     -382.488     -73.798     348.494
  O     -383.106     -73.005     347.502
  O     -385.209     -71.718     346.628
  O     -385.303     -73.278     348.692
  H     -384.792     -73.755     349.364
  H     -381.673     -74.364     348.033
  H     -383.199     -74.502     348.928
  H     -382.075     -73.161     349.278
  H     -379.339     -73.086     352.217
  H     -378.896     -73.402     350.557
  H     -380.463     -72.724     350.929

 3  4  5  6  7  8  9  10  11  12  22  25  29  30  31  32 0
 6-311+G(2d,p)
 ****
 33  36  37 0
 6-311+G(2d,p)
 ****
 1  2  13  14  15  16  17  18  19  20  21  23  24  26 0
 3-21G
 ****
 27  28  34  35  38  39  40  41  42  43  44  45  46  47  48 0
 3-21G
 ****


