%nproc=1
%NoSave
%Mem=1900MB
#P OB98/GEN NMR

erre ene a

0 1
  C     -454.707      72.700    -460.079
  O     -455.027      72.518    -461.448
  P     -453.889      72.574    -462.581
  C     -453.626      74.664    -464.080
  O     -453.562      74.131    -462.763
  C     -455.082      74.872    -464.486
  O     -455.777      75.583    -463.439
  C     -455.273      75.696    -465.752
  O     -454.993      74.932    -466.910
  C     -456.723      76.139    -465.590
  O     -457.615      75.082    -465.979
  C     -456.820      76.371    -464.067
  N     -456.705      77.779    -463.698
  C     -457.792      78.593    -464.026
  O     -458.789      78.137    -464.583
  N     -457.745      79.924    -463.678
  C     -456.692      80.399    -463.082
  N     -456.730      81.705    -462.700
  C     -455.504      79.586    -462.770
  C     -455.581      78.295    -463.100
  O     -454.225      71.854    -463.843
  O     -452.574      72.026    -461.855
  H     -458.455      75.507    -466.249
  H     -452.474      71.045    -461.910
  H     -454.645      80.030    -462.284
  H     -454.755      77.628    -462.886
  H     -457.768      75.980    -463.684
  H     -456.977      77.024    -466.182
  H     -454.619      76.577    -465.736
  H     -455.554      73.885    -464.597
  H     -457.625      82.173    -462.771
  H     -453.161      73.945    -464.766
  H     -456.097      82.067    -461.994
  H     -453.066      75.602    -464.120
  P     -454.964      75.694    -468.317
  C     -457.019      75.760    -469.898
  O     -456.487      76.104    -468.627
  O     -454.636      74.533    -469.362
  O     -453.978      76.815    -468.390
  H     -453.697      74.556    -469.618
  H     -458.104      75.887    -469.861
  H     -456.790      74.719    -470.145
  H     -456.616      76.427    -470.661
  H     -455.598      72.627    -459.492
  H     -454.267      73.666    -459.941
  H     -454.014      71.945    -459.771

 3  4  5  6  7  8  9  10  11  12  13  23  27  28  29  30  32 0
 6-311+G(2d,p)
 ****
 34  35 0
 6-311+G(2d,p)
 ****
 1  2  14  15  16  17  18  19  20  21  22  24  25  26 0
 3-21G
 ****
 31  33  36  37  38  39  40  41  42  43  44  45  46 0
 3-21G
 ****


