%nproc=1
%NoSave
%Mem=1900MB
#P OB98/GEN NMR

erre ene a

0 1
  C      163.389    -229.197    -207.919
  O      162.092    -229.124    -207.338
  P      161.856    -228.084    -206.139
  C      162.054    -229.795    -204.203
  O      162.619    -228.667    -204.855
  C      162.040    -229.605    -202.687
  O      163.384    -229.292    -202.237
  C      161.121    -228.483    -202.191
  O      160.610    -228.882    -200.911
  C      162.077    -227.321    -202.001
  O      161.556    -226.330    -201.118
  C      163.309    -228.060    -201.488
  N      165.696    -223.668    -200.384
  C      164.485    -224.152    -200.026
  N      163.918    -225.329    -200.360
  C      164.739    -226.043    -201.150
  C      165.986    -225.669    -201.624
  C      166.474    -224.419    -201.208
  N      167.709    -223.934    -201.558
  N      166.513    -226.658    -202.433
  C      165.600    -227.610    -202.449
  N      164.524    -227.291    -201.665
  O      160.308    -228.302    -205.789
  O      162.140    -226.656    -206.469
  H      160.683    -226.051    -201.450
  H      159.794    -227.510    -206.043
  H      163.894    -223.504    -199.380
  H      165.670    -228.536    -203.002
  H      163.225    -228.315    -200.423
  H      162.275    -226.839    -202.968
  H      160.297    -228.246    -202.872
  H      161.759    -230.563    -202.223
  H      162.654    -230.675    -204.441
  H      168.038    -223.095    -201.115
  H      168.366    -224.559    -202.013
  H      161.035    -229.959    -204.573
  P      159.036    -228.700    -200.669
  C      159.184    -226.483    -199.327
  O      158.773    -227.128    -200.519
  O      158.823    -229.266    -199.187
  O      158.175    -229.411    -201.663
  H      157.913    -229.608    -199.086
  H      159.493    -225.463    -199.563
  H      160.017    -227.008    -198.848
  H      158.337    -226.452    -198.631
  H      163.390    -229.929    -208.699
  H      164.101    -229.474    -207.169
  H      163.652    -228.243    -208.325

 3  4  5  6  7  8  9  10  11  12  22  25  29  30  31  32 0
 6-311+G(2d,p)
 ****
 33  36  37 0
 6-311+G(2d,p)
 ****
 1  2  13  14  15  16  17  18  19  20  21  23  24  26 0
 3-21G
 ****
 27  28  34  35  38  39  40  41  42  43  44  45  46  47  48 0
 3-21G
 ****


