%nproc=1
%NoSave
%Mem=1900MB
#P OB98/GEN NMR

erre ene a

0 1
  C      141.334    -209.107    -322.749
  O      140.467    -208.550    -321.782
  H      142.193    -208.443    -322.878
  H      140.813    -209.202    -323.710
  H      141.693    -210.088    -322.425
  P      139.194    -209.427    -321.354
  C      137.512    -208.597    -323.168
  O      138.333    -209.656    -322.694
  C      136.295    -209.168    -323.893
  O      135.337    -208.096    -324.104
  C      136.633    -209.759    -325.273
  O      135.817    -210.909    -325.502
  C      136.236    -208.648    -326.233
  O      135.953    -209.101    -327.551
  C      135.016    -208.059    -325.511
  N      134.712    -206.696    -325.941
  C      134.347    -206.511    -327.268
  O      134.189    -207.415    -328.090
  N      134.160    -205.206    -327.653
  C      134.318    -204.103    -326.861
  O      134.158    -202.954    -327.270
  C      134.718    -204.367    -325.473
  C      134.895    -205.630    -325.079
  O      138.295    -208.394    -320.519
  O      139.490    -210.673    -320.593
  H      138.530    -208.430    -319.568
  H      135.683    -208.325    -328.084
  H      133.891    -205.048    -328.613
  H      134.862    -203.512    -324.822
  H      135.195    -205.856    -324.065
  H      134.140    -208.702    -325.665
  H      137.037    -207.903    -326.299
  H      137.687    -210.024    -325.375
  H      135.811    -209.917    -323.251
  H      138.095    -207.978    -323.860
  H      137.192    -207.980    -322.318
  P      136.531    -212.348    -325.424
  C      137.159    -212.431    -327.964
  O      137.608    -212.370    -326.618
  O      135.360    -213.311    -325.928
  O      137.073    -212.658    -324.062
  H      134.812    -212.922    -326.630
  H      138.003    -212.438    -328.622
  H      136.549    -211.578    -328.175
  H      136.587    -213.323    -328.109

 6  7  8  9  10  11  12  13  14  15  16  27  31  32  33  34  35 0
 6-311+G(2d,p)
 ****
 36  37 0
 6-311+G(2d,p)
 ****
 1  2  3  4  5  17  18  19  20  21  22  23  24  25 0
 3-21G
 ****
 26  28  29  30  38  39  40  41  42  43  44  45 0
 3-21G
 ****


