%nproc=1
%NoSave
%Mem=1900MB
#P OB98/GEN NMR

erre ene a

0 1
  C     -101.374      84.907    -249.295
  O     -102.136      83.723    -249.548
  P     -101.900      82.471    -248.576
  C     -104.343      82.438    -247.675
  O     -102.956      82.552    -247.375
  C     -105.174      82.615    -246.403
  O     -105.082      83.962    -245.904
  C     -106.658      82.371    -246.619
  O     -106.932      80.985    -246.672
  C     -107.273      83.075    -245.415
  O     -107.400      82.190    -244.290
  C     -106.260      84.202    -245.115
  N     -106.804      85.528    -245.367
  C     -107.608      86.060    -244.355
  O     -107.839      85.405    -243.335
  N     -108.150      87.307    -244.536
  C     -107.929      87.951    -245.640
  N     -108.498      89.180    -245.763
  C     -107.108      87.412    -246.743
  C     -106.583      86.205    -246.542
  O     -100.507      82.814    -247.867
  O     -101.847      81.156    -249.284
  H     -106.485      81.929    -244.057
  H     -100.013      81.996    -247.678
  H     -106.960      87.983    -247.646
  H     -105.967      85.731    -247.299
  H     -105.946      84.162    -244.065
  H     -108.278      83.444    -245.641
  H     -106.988      82.862    -247.544
  H     -104.788      81.928    -245.636
  H     -109.056      89.518    -244.989
  H     -104.551      81.465    -248.124
  H     -108.398      89.764    -246.581
  H     -104.605      83.192    -248.425
  P     -106.910      80.274    -248.107
  C     -105.225      78.550    -247.222
  O     -105.481      79.549    -248.190
  O     -106.704      81.520    -249.094
  O     -108.096      79.453    -248.482
  H     -106.770      81.227    -250.020
  H     -104.327      78.001    -247.515
  H     -106.060      77.849    -247.162
  H     -105.052      79.015    -246.247
  H     -101.631      85.657    -250.014
  H     -100.331      84.683    -249.371
  H     -101.591      85.267    -248.311

 3  4  5  6  7  8  9  10  11  12  13  21  23  27  28  29  30  32 0
 6-311+G(2d,p)
 ****
 34  35 0
 6-311+G(2d,p)
 ****
 1  2  14  15  16  17  18  19  20  22  24  25  26 0
 3-21G
 ****
 31  33  36  37  38  39  40  41  42  43  44  45  46 0
 3-21G
 ****


