%nproc=1
%NoSave
%Mem=1900MB
#P OB98/GEN NMR

erre ene a

0 1
  C      152.258    -524.031      67.461
  O      151.656    -525.305      67.609
  H      152.816    -524.014      66.523
  H      152.945    -523.823      68.283
  H      151.484    -523.253      67.418
  P      150.993    -525.665      69.023
  C      151.856    -525.924      71.447
  O      152.202    -525.670      70.085
  C      152.928    -526.783      72.123
  O      154.244    -526.307      71.774
  C      152.882    -526.732      73.645
  O      151.750    -527.369      74.215
  C      154.280    -527.199      74.035
  O      154.402    -528.619      74.112
  C      155.133    -526.671      72.850
  N      155.971    -525.541      73.249
  C      157.142    -525.872      73.950
  O      157.441    -527.043      74.246
  N      157.923    -524.829      74.334
  C      157.644    -523.500      74.149
  O      158.368    -522.612      74.556
  C      156.388    -523.214      73.420
  C      155.632    -524.231      73.012
  O      150.159    -526.917      69.055
  O      150.177    -524.338      69.410
  H      153.906    -528.906      74.899
  H      149.507    -524.521      70.123
  H      158.771    -525.049      74.836
  H      156.136    -522.167      73.256
  H      154.697    -524.041      72.484
  H      155.791    -527.457      72.470
  H      154.581    -526.791      75.007
  H      152.817    -525.683      73.950
  H      152.829    -527.810      71.761
  H      150.900    -526.470      71.458
  H      151.741    -524.972      71.979
  P      151.165    -527.002      75.645
  C      151.092    -528.091      78.015
  O      151.604    -528.154      76.690
  O      149.764    -526.492      75.698
  O      152.137    -525.785      76.093
  H      151.602    -525.145      76.621
  H      151.470    -528.915      78.583
  H      150.023    -528.137      77.987
  H      151.398    -527.173      78.472

 6  7  8  9  10  11  12  13  14  15  16  26  31  32  33  34  35 0
 6-311+G(2d,p)
 ****
 36  37 0
 6-311+G(2d,p)
 ****
 1  2  3  4  5  17  18  19  20  21  22  23  24  25 0
 3-21G
 ****
 27  28  29  30  38  39  40  41  42  43  44  45 0
 3-21G
 ****


