%nproc=1
%NoSave
%Mem=1900MB
#P OB98/GEN NMR

erre ene a

0 1
  C       17.846     338.946     750.457
  O       17.872     340.145     751.204
  H       18.355     338.166     751.026
  H       18.374     339.090     749.510
  H       16.818     338.624     750.265
  P       16.958     341.373     750.738
  C       18.704     341.971     748.933
  O       17.346     341.661     749.207
  C       18.842     342.518     747.510
  O       18.270     343.864     747.483
  C       20.305     342.622     747.031
  O       20.341     342.363     745.625
  C       20.611     344.079     747.302
  O       21.710     344.536     746.556
  C       19.277     344.732     746.933
  N       19.185     346.090     747.451
  C       19.878     347.082     746.760
  O       20.553     346.861     745.756
  N       19.825     348.336     747.298
  C       19.264     348.670     748.496
  O       19.321     349.797     748.969
  C       18.594     347.569     749.217
  C       18.578     346.354     748.669
  O       16.982     342.577     751.622
  O       15.489     340.749     750.603
  H       21.522     344.461     745.600
  H       14.813     341.451     750.649
  H       20.314     349.066     746.803
  H       18.149     347.799     750.176
  H       18.111     345.520     749.175
  H       19.142     344.754     745.843
  H       20.840     344.225     748.361
  H       20.975     341.934     747.554
  H       18.242     341.903     746.832
  H       19.292     341.056     749.040
  H       19.063     342.709     749.657
  P       20.645     340.898     745.038
  C       23.146     340.300     744.969
  O       21.946     340.269     745.741
  O       20.674     340.830     743.545
  O       19.445     339.997     745.601
  H       19.098     339.441     744.878
  H       23.943     339.858     745.530
  H       23.394     341.314     744.735
  H       23.001     339.750     744.062

 6  7  8  9  10  11  12  13  14  15  16  26  31  32  33  34  35 0
 6-311+G(2d,p)
 ****
 36  37 0
 6-311+G(2d,p)
 ****
 1  2  3  4  5  17  18  19  20  21  22  23  24  25 0
 3-21G
 ****
 27  28  29  30  38  39  40  41  42  43  44  45 0
 3-21G
 ****


