%nproc=1
%NoSave
%Mem=1900MB
#P OB98/GEN NMR

erre ene a

0 1
  C      417.640    -870.925     726.086
  O      417.974    -872.220     726.521
  H      417.369    -870.320     726.956
  H      416.775    -870.970     725.412
  H      418.479    -870.462     725.577
  P      418.493    -873.257     725.404
  C      416.284    -872.859     724.094
  O      417.711    -872.880     724.049
  C      415.715    -872.357     722.763
  O      415.958    -870.926     722.652
  C      416.332    -873.033     721.516
  O      415.305    -873.161     720.532
  C      417.332    -871.988     721.036
  O      417.671    -872.146     719.653
  C      416.561    -870.711     721.365
  N      418.483    -867.089     718.436
  C      417.576    -868.103     718.143
  N      417.143    -868.148     716.865
  N      417.178    -868.970     719.017
  C      417.686    -868.780     720.259
  C      418.576    -867.825     720.685
  C      419.050    -866.872     719.691
  O      419.857    -865.959     719.890
  N      418.869    -867.968     722.005
  C      418.161    -869.021     722.388
  N      417.428    -869.544     721.371
  O      417.813    -874.637     725.866
  O      419.971    -873.381     725.279
  H      418.115    -873.005     719.551
  H      418.424    -875.146     726.434
  H      418.776    -866.447     717.722
  H      418.148    -869.432     723.397
  H      415.760    -870.509     720.640
  H      418.249    -872.057     721.636
  H      417.380    -867.485     716.154
  H      416.784    -874.004     721.714
  H      416.445    -868.864     716.647
  H      414.625    -872.498     722.784
  H      415.963    -872.176     724.898
  H      415.907    -873.867     724.302
  P      414.844    -874.643     720.101
  C      416.501    -875.173     718.156
  O      416.126    -875.402     719.511
  O      413.956    -874.355     718.798
  O      414.071    -875.362     721.147
  H      413.297    -875.067     718.687
  H      417.370    -875.752     717.924
  H      416.716    -874.134     718.016
  H      415.698    -875.461     717.510

 6  7  8  9  10  11  12  13  14  15  26  29  33  34 0
 6-311+G(2d,p)
 ****
 36  38  39  40  41 0
 6-311+G(2d,p)
 ****
 1  2  3  4  5  16  17  18  19  20  21  22  23  24  25 0
 3-21G
 ****
 27  28  30  31  32  35  37  42  43  44  45  46  47 0
 3-21G
 ****
 48  49 0
 3-21G
 ****


