%nproc=1
%NoSave
%Mem=1900MB
#P OB98/GEN NMR

erre ene a

0 1
  C      478.573     417.455     192.273
  O      479.469     418.382     192.901
  P      479.912     418.136     194.416
  C      482.136     416.938     193.886
  O      480.859     416.851     194.501
  C      482.783     415.547     193.805
  O      482.154     414.734     192.782
  C      484.258     415.600     193.417
  O      485.143     416.127     194.372
  C      484.514     414.178     192.946
  O      484.773     413.294     194.037
  C      483.158     413.819     192.272
  N      483.220     413.867     190.812
  C      483.111     412.644     190.155
  O      483.018     411.561     190.751
  N      483.165     412.693     188.792
  C      483.339     413.802     188.028
  O      483.394     413.798     186.808
  C      483.467     415.073     188.791
  C      483.406     415.046     190.119
  O      478.816     418.197     195.427
  O      480.962     419.341     194.674
  H      484.015     413.341     194.644
  H      480.797     419.691     195.569
  H      483.078     411.807     188.300
  H      483.611     415.987     188.215
  H      483.495     415.963     190.690
  H      482.833     412.813     192.567
  H      485.376     414.128     192.278
  H      484.345     416.248     192.536
  H      482.629     415.043     194.760
  H      482.767     417.621     194.449
  H      482.019     417.383     192.885
  P      485.860     417.564     194.220
  C      484.787     418.558     196.362
  O      484.946     418.653     194.965
  O      486.385     417.924     192.874
  O      487.096     417.416     195.238
  H      487.841     417.927     194.886
  H      484.134     419.375     196.701
  H      485.748     418.659     196.865
  H      484.328     417.603     196.633
  H      478.383     417.768     191.268
  H      477.652     417.424     192.817
  H      479.015     416.481     192.265

 3  4  5  6  7  8  9  10  11  12  13  23  28  29  30  31  32 0
 6-311+G(2d,p)
 ****
 33  34 0
 6-311+G(2d,p)
 ****
 1  2  14  15  16  17  18  19  20  21  22  24  25  26  27 0
 3-21G
 ****
 35  36  37  38  39  40  41  42  43  44  45 0
 3-21G
 ****


