%nproc=1
%NoSave
%Mem=1900MB
#P OB98/GEN NMR

erre ene a

0 1
  C      -63.005     -25.050     -48.954
  O      -62.900     -25.701     -47.702
  H      -62.093     -25.242     -49.525
  H      -63.118     -23.971     -48.825
  H      -63.857     -25.449     -49.511
  P      -63.984     -25.347     -46.573
  C      -66.552     -25.541     -46.454
  O      -65.412     -25.455     -47.304
  C      -67.830     -25.163     -47.202
  O      -67.887     -23.739     -47.431
  C      -67.948     -25.784     -48.585
  O      -68.102     -27.184     -48.593
  C      -69.017     -24.914     -49.228
  O      -70.337     -25.320     -48.870
  C      -68.700     -23.531     -48.608
  N      -68.054     -22.633     -49.557
  C      -68.761     -22.367     -50.723
  O      -69.858     -22.863     -50.981
  N      -68.148     -21.530     -51.615
  C      -66.906     -20.984     -51.475
  O      -66.403     -20.255     -52.322
  C      -66.189     -21.332     -50.238
  C      -66.787     -22.127     -49.347
  O      -63.768     -24.050     -45.852
  O      -63.971     -26.627     -45.615
  H      -70.440     -26.245     -49.165
  H      -64.411     -26.431     -44.751
  H      -68.652     -21.312     -52.461
  H      -65.196     -20.926     -50.099
  H      -66.278     -22.396     -48.425
  H      -69.625     -23.050     -48.263
  H      -68.958     -24.929     -50.319
  H      -67.017     -25.584     -49.132
  H      -68.684     -25.432     -46.572
  H      -66.402     -24.844     -45.623
  H      -66.634     -26.557     -46.054
  P      -67.560     -28.130     -49.756
  C      -65.227     -28.571     -50.848
  O      -66.067     -27.679     -50.126
  O      -68.505     -28.422     -50.875
  O      -67.305     -29.512     -48.959
  H      -67.502     -30.241     -49.580
  H      -64.274     -28.112     -51.008
  H      -65.676     -28.798     -51.792
  H      -65.099     -29.473     -50.287

 6  7  8  9  10  11  12  13  14  15  16  26  31  32  33  34  35 0
 6-311+G(2d,p)
 ****
 36  37 0
 6-311+G(2d,p)
 ****
 1  2  3  4  5  17  18  19  20  21  22  23  24  25 0
 3-21G
 ****
 27  28  29  30  38  39  40  41  42  43  44  45 0
 3-21G
 ****


