%nproc=1
%NoSave
%Mem=1900MB
#P OB98/GEN NMR

erre ene a

0 1
  C      100.621     143.814    -180.333
  O       99.758     144.335    -181.325
  H      100.415     142.747    -180.212
  H      100.446     144.318    -179.379
  H      101.665     143.939    -180.637
  P       99.889     145.904    -181.635
  C      102.053     145.582    -183.026
  O      101.451     146.178    -181.888
  C      102.553     146.655    -183.989
  O      101.452     147.451    -184.483
  C      103.557     147.627    -183.381
  O      104.866     147.085    -183.391
  C      103.409     148.825    -184.309
  O      104.158     148.645    -185.528
  C      101.899     148.829    -184.591
  N       99.818     153.393    -184.015
  C      100.479     152.844    -185.095
  N      100.658     153.655    -186.162
  N      100.934     151.621    -185.124
  C      100.711     150.941    -183.974
  C      100.055     151.366    -182.842
  C       99.529     152.715    -182.837
  O       98.877     153.237    -181.937
  N      100.013     150.381    -181.891
  C      100.676     149.375    -182.432
  N      101.135     149.673    -183.689
  O       99.624     146.589    -180.211
  O       98.963     146.430    -182.678
  H      104.090     149.451    -186.067
  H       99.210     147.461    -180.349
  H       99.475     154.337    -184.060
  H      100.853     148.422    -181.955
  H      101.671     149.166    -185.608
  H      103.781     149.741    -183.847
  H      100.635     154.662    -186.072
  H      103.255     147.913    -182.366
  H      101.162     153.268    -186.949
  H      102.992     146.141    -184.854
  H      101.310     144.960    -183.538
  H      102.887     144.950    -182.703
  P      106.003     147.861    -182.564
  C      105.714     146.405    -180.427
  O      105.624     147.697    -181.014
  O      105.683     149.402    -182.857
  O      107.400     147.498    -182.931
  H      106.459     149.953    -182.633
  H      105.431     146.461    -179.397
  H      106.720     146.049    -180.501
  H      105.059     145.733    -180.941

 6  7  8  9  10  11  12  13  14  15  26  29  33  34 0
 6-311+G(2d,p)
 ****
 36  38  39  40  41 0
 6-311+G(2d,p)
 ****
 1  2  3  4  5  16  17  18  19  20  21  22  23  24  25 0
 3-21G
 ****
 27  28  30  31  32  35  37  42  43  44  45  46  47 0
 3-21G
 ****
 48  49 0
 3-21G
 ****


