%nproc=1
%NoSave
%Mem=1900MB
#P OB98/GEN NMR

erre ene a

0 1
  C       18.911      39.310      -2.930
  O       17.502      39.306      -3.027
  H       19.330      38.985      -3.887
  H       19.237      38.617      -2.151
  H       19.275      40.317      -2.709
  P       16.690      39.795      -1.733
  C       17.468      42.264      -1.979
  O       17.463      41.088      -1.179
  C       18.107      43.412      -1.204
  O       18.293      44.543      -2.085
  C       17.264      43.931      -0.045
  O       17.367      43.102       1.099
  C       17.859      45.318       0.156
  O       19.042      45.273       0.963
  C       18.218      45.737      -1.276
  N       16.169      50.378      -0.797
  C       17.168      49.759      -0.132
  N       17.669      48.521      -0.335
  C       17.032      47.917      -1.352
  C       15.994      48.419      -2.116
  C       15.558      49.718      -1.808
  N       14.518      50.335      -2.461
  N       15.573      47.480      -3.037
  C       16.350      46.435      -2.839
  N       17.248      46.656      -1.835
  O       17.024      38.661      -0.652
  O       15.221      39.966      -1.930
  H       19.635      44.615       0.551
  H       16.317      37.989      -0.654
  H       17.623      50.331       0.672
  H       16.293      45.501      -3.386
  H       19.197      46.226      -1.330
  H       17.153      45.985       0.653
  H       16.217      44.036      -0.355
  H       19.095      43.089      -0.852
  H       16.437      42.532      -2.234
  H       18.023      42.064      -2.901
  H       14.244      51.259      -2.171
  H       13.987      49.810      -3.144
  P       16.627      43.557       2.443
  C       14.697      41.835       2.178
  O       15.071      43.199       2.286
  O       16.660      45.154       2.357
  O       17.251      43.053       3.701
  H       17.376      45.511       2.914
  H       13.634      41.763       2.080
  H       15.011      41.309       3.055
  H       15.164      41.404       1.317

 6  7  8  9  10  11  12  13  14  15  25  28  32  33  34  35 0
 6-311+G(2d,p)
 ****
 36  37  40 0
 6-311+G(2d,p)
 ****
 1  2  3  4  5  16  17  18  19  20  21  22  23  24 0
 3-21G
 ****
 26  27  29  30  31  38  39 41  42  43  44  45  46  47  48 0
 3-21G
 ****


