%nproc=1
%NoSave
%Mem=1900MB
#P OB98/GEN NMR

erre ene a

0 1
  C      604.920    -240.798    -301.184
  O      605.206    -241.970    -301.940
  P      605.806    -243.244    -301.181
  C      603.625    -244.719    -300.908
  O      604.661    -243.957    -300.327
  C      602.604    -245.096    -299.825
  O      601.915    -243.916    -299.352
  C      601.534    -246.070    -300.311
  O      601.956    -247.418    -300.198
  C      600.362    -245.724    -299.416
  O      600.537    -246.307    -298.112
  C      600.483    -244.184    -299.343
  N      599.849    -243.385    -300.413
  C      598.462    -243.257    -300.450
  O      597.695    -243.779    -299.642
  N      597.956    -242.484    -301.459
  C      598.674    -241.701    -302.316
  O      598.165    -240.981    -303.166
  C      600.130    -241.755    -302.139
  C      600.640    -242.584    -301.224
  O      606.769    -242.611    -300.076
  O      606.530    -244.208    -302.067
  H      600.507    -247.270    -298.222
  H      607.696    -242.857    -300.250
  H      596.954    -242.435    -301.548
  H      600.736    -241.114    -302.763
  H      601.718    -242.632    -301.087
  H      600.086    -243.808    -298.391
  H      599.433    -246.131    -299.810
  H      601.256    -245.837    -301.342
  H      603.145    -245.531    -298.974
  H      604.023    -245.621    -301.377
  H      603.139    -244.137    -301.700
  P      602.870    -248.067    -301.339
  C      604.556    -248.790    -299.544
  O      604.362    -248.069    -300.747
  O      602.722    -247.491    -302.706
  O      602.479    -249.622    -301.293
  H      601.798    -249.827    -301.975
  H      605.626    -248.845    -299.335
  H      604.155    -249.805    -299.638
  H      604.060    -248.270    -298.718
  H      604.528    -240.042    -301.832
  H      605.818    -240.442    -300.724
  H      604.199    -241.028    -300.428

 3  4  5  6  7  8  9  10  11  12  13  23  28  29  30  31  32 0
 6-311+G(2d,p)
 ****
 33  34 0
 6-311+G(2d,p)
 ****
 1  2  14  15  16  17  18  19  20  21  22  24  25  26  27 0
 3-21G
 ****
 35  36  37  38  39  40  41  42  43  44  45 0
 3-21G
 ****


