%nproc=1
%NoSave
%Mem=1900MB
#P OB98/GEN NMR

erre ene a

0 1
  C      144.184    -535.479     512.741
  O      144.936    -534.311     512.979
  H      144.791    -536.174     512.159
  H      143.289    -535.222     512.162
  H      143.890    -535.963     513.677
  P      144.479    -533.325     514.153
  C      143.242    -531.065     514.302
  O      143.503    -532.218     513.515
  C      143.121    -529.802     513.443
  O      144.384    -529.523     512.796
  C      142.097    -529.961     512.321
  O      140.752    -529.706     512.686
  C      142.592    -528.931     511.298
  O      142.074    -527.625     511.597
  C      144.107    -528.967     511.491
  N      146.227    -529.029     506.846
  C      145.561    -527.999     507.479
  N      145.390    -526.863     506.767
  N      145.093    -528.089     508.700
  C      145.260    -529.313     509.256
  C      145.892    -530.417     508.716
  C      146.453    -530.285     507.384
  O      147.048    -531.173     506.775
  N      145.860    -531.481     509.578
  C      145.153    -531.056     510.603
  N      144.789    -529.734     510.467
  O      145.803    -532.472     514.470
  O      143.962    -533.995     515.392
  H      142.372    -527.010     510.899
  H      145.781    -532.157     515.389
  H      146.594    -528.892     505.917
  H      144.901    -531.646     511.479
  H      144.540    -527.954     511.477
  H      142.263    -529.177     510.289
  H      145.629    -526.789     505.789
  H      142.175    -530.952     511.868
  H      144.685    -526.199     507.090
  H      142.891    -528.942     514.086
  H      144.073    -530.962     514.999
  H      142.332    -531.206     514.896
  P      139.555    -530.361     511.854
  C      138.073    -529.458     509.907
  O      139.325    -529.440     510.561
  O      138.278    -530.054     512.769
  O      139.705    -531.816     511.578
  H      138.073    -530.833     513.327
  H      138.097    -528.790     509.072
  H      137.310    -529.148     510.590
  H      137.864    -530.450     509.564

 6  7  8  9  10  11  12  13  14  15  26  29  33  34 0
 6-311+G(2d,p)
 ****
 36  38  39  40  41 0
 6-311+G(2d,p)
 ****
 1  2  3  4  5  16  17  18  19  20  21  22  23  24  25 0
 3-21G
 ****
 27  28  30  31  32  35  37  42  43  44  45  46  47 0
 3-21G
 ****
 48  49 0
 3-21G
 ****


