%nproc=1
%NoSave
%Mem=1900MB
#P OB98/GEN NMR

erre ene a

0 1
  C      657.452     -92.958      98.632
  O      656.203     -92.677      97.979
  P      656.077     -91.309      97.155
  C      655.886     -92.114      94.689
  O      655.221     -91.604      95.834
  C      655.268     -91.540      93.413
  O      656.017     -91.922      92.238
  C      653.838     -92.000      93.163
  O      652.898     -91.228      93.896
  C      653.693     -91.715      91.671
  O      653.421     -90.312      91.473
  C      655.082     -92.074      91.138
  N      654.301     -94.998      87.082
  C      654.130     -93.637      87.245
  N      653.692     -92.952      86.162
  N      654.366     -93.001      88.364
  C      654.814     -93.814      89.349
  C      655.025     -95.173      89.310
  C      654.743     -95.863      88.071
  O      654.867     -97.069      87.874
  N      655.477     -95.644      90.516
  C      655.567     -94.568      91.278
  N      655.155     -93.431      90.622
  O      657.559     -91.103      96.576
  O      655.636     -90.139      97.970
  H      653.452     -90.155      90.511
  H      657.732     -90.150      96.442
  H      654.100     -95.434      86.195
  H      655.915     -94.560      92.303
  H      655.409     -91.406      90.333
  H      652.864     -92.268      91.225
  H      653.538     -93.363      85.259
  H      653.728     -93.079      93.352
  H      653.589     -91.946      86.259
  H      655.280     -90.444      93.490
  H      655.825     -93.206      94.671
  H      656.952     -91.876      94.763
  P      651.776     -92.012      94.734
  C      652.735     -92.330      97.124
  O      651.944     -91.543      96.253
  O      652.314     -93.521      94.724
  O      650.399     -91.914      94.170
  H      651.563     -94.143      94.738
  H      652.871     -91.781      98.062
  H      653.714     -92.531      96.686
  H      652.227     -93.275      97.340
  H      657.386     -93.898      99.138
  H      657.666     -92.186      99.341
  H      658.234     -92.999      97.903

 3  4  5  6  7  8  9  10  11  12  23  26  30  31 0
 6-311+G(2d,p)
 ****
 33  35  36  37  38 0
 6-311+G(2d,p)
 ****
 1  2  13  14  15  16  17  18  19  20  21  22  24  25 0
 3-21G
 ****
 27  28  29  32  34  39  40  41  42  43  44  45  46  47  48  49 0
 3-21G
 ****


