%nproc=1
%NoSave
%Mem=1900MB
#P OB98/GEN NMR

erre ene a

0 1
  C     -316.193     -49.018    -724.766
  O     -315.226     -50.044    -724.997
  P     -314.074     -50.202    -723.885
  C     -311.801     -49.036    -723.411
  O     -313.091     -48.932    -724.009
  C     -311.392     -47.714    -722.746
  O     -311.111     -46.684    -723.746
  C     -312.446     -47.138    -721.790
  O     -311.745     -46.498    -720.716
  C     -313.122     -46.077    -722.642
  O     -313.841     -45.138    -721.844
  C     -311.909     -45.524    -723.384
  N     -313.547     -41.035    -725.028
  C     -313.405     -41.507    -723.749
  N     -313.687     -40.637    -722.739
  N     -313.004     -42.722    -723.459
  C     -312.716     -43.461    -724.560
  C     -312.803     -43.103    -725.892
  C     -313.278     -41.764    -726.190
  O     -313.426     -41.293    -727.310
  N     -312.401     -44.124    -726.718
  C     -312.131     -45.115    -725.898
  N     -312.260     -44.756    -724.564
  O     -313.197     -51.423    -724.431
  O     -314.609     -50.462    -722.509
  H     -313.187     -44.642    -721.302
  H     -313.430     -52.240    -723.959
  H     -313.864     -40.094    -725.199
  H     -311.824     -46.107    -726.185
  H     -311.295     -44.872    -722.763
  H     -313.836     -46.546    -723.330
  H     -313.946     -39.682    -722.893
  H     -313.150     -47.883    -721.394
  H     -313.552     -40.945    -721.784
  H     -310.451     -47.888    -722.196
  H     -311.066     -49.299    -724.173
  H     -311.817     -49.864    -722.687
  P     -312.125     -46.908    -719.211
  C     -313.843     -46.140    -717.436
  O     -313.381     -46.038    -718.776
  O     -310.919     -46.296    -718.344
  O     -312.238     -48.391    -718.985
  H     -310.679     -46.916    -717.634
  H     -314.348     -45.204    -717.159
  H     -313.019     -46.319    -716.739
  H     -314.560     -46.954    -717.358
  H     -316.902     -49.010    -725.567
  H     -315.701     -48.069    -724.715
  H     -316.700     -49.207    -723.843

 3  4  5  6  7  8  9  10  11  12  23  26  30  31 0
 6-311+G(2d,p)
 ****
 33  35  36  37  38 0
 6-311+G(2d,p)
 ****
 1  2  13  14  15  16  17  18  19  20  21  22  24  25 0
 3-21G
 ****
 27  28  29  32  34  39  40  41  42  43  44  45  46  47  48  49 0
 3-21G
 ****


