%nproc=1
%NoSave
%Mem=1900MB
#P OB98/GEN NMR

erre ene a

0 1
  C      343.814     336.871    -435.363
  O      342.521     336.270    -435.450
  P      341.471     336.473    -434.245
  C      339.938     338.364    -435.124
  O      340.984     337.996    -434.231
  C      338.994     339.366    -434.435
  O      339.694     340.584    -434.057
  C      337.861     339.838    -435.353
  O      336.880     338.880    -435.681
  C      337.410     341.111    -434.665
  O      336.490     340.826    -433.606
  C      338.736     341.661    -434.112
  N      339.245     342.793    -434.896
  C      339.238     344.031    -434.285
  O      338.797     344.213    -433.152
  N      339.734     345.071    -435.024
  C      340.190     345.003    -436.318
  O      340.594     345.969    -436.942
  C      340.146     343.659    -436.930
  C      339.683     342.634    -436.217
  O      341.888     335.905    -432.926
  O      340.167     335.703    -434.792
  H      335.659     340.513    -434.006
  H      339.774     335.204    -434.042
  H      339.739     345.983    -434.593
  H      340.485     343.563    -437.953
  H      339.639     341.634    -436.645
  H      338.608     342.017    -433.083
  H      336.889     341.775    -435.369
  H      338.319     340.128    -436.311
  H      338.599     338.911    -433.519
  H      339.394     337.478    -435.433
  H      340.379     338.795    -436.022
  P      335.884     339.029    -436.930
  C      337.340     338.267    -438.940
  O      336.757     339.348    -438.237
  O      334.644     339.855    -436.734
  O      335.452     337.510    -437.186
  H      334.526     337.502    -437.517
  H      337.912     338.661    -439.782
  H      336.577     337.592    -439.313
  H      338.024     337.718    -438.287
  H      344.377     336.636    -436.242
  H      344.325     336.495    -434.501
  H      343.709     337.933    -435.280

 3  4  5  6  7  8  9  10  11  12  13  23  28  29  30  31  32 0
 6-311+G(2d,p)
 ****
 33  34 0
 6-311+G(2d,p)
 ****
 1  2  14  15  16  17  18  19  20  21  22  24  25  26  27 0
 3-21G
 ****
 35  36  37  38  39  40  41  42  43  44  45 0
 3-21G
 ****


