%nproc=1
%NoSave
%Mem=1900MB
#P OB98/GEN NMR

erre ene a

0 1
  C      852.542      97.977    1455.694
  O      853.611      97.023    1455.461
  P      853.653      95.569    1456.169
  C      854.581      96.560    1458.364
  O      854.737      95.579    1457.320
  C      855.279      96.148    1459.652
  O      854.679      94.946    1460.199
  C      856.775      95.840    1459.498
  O      857.558      97.012    1459.359
  C      857.028      95.017    1460.775
  O      857.275      95.894    1461.897
  C      855.706      94.255    1460.937
  N      855.813      92.854    1460.507
  C      856.530      92.011    1461.354
  O      857.078      92.438    1462.368
  N      856.627      90.659    1460.986
  C      856.112      90.248    1459.861
  N      856.224      88.927    1459.594
  C      855.436      91.143    1458.910
  C      855.293      92.417    1459.294
  O      853.796      94.426    1455.188
  O      852.258      95.442    1456.957
  H      856.468      96.429    1462.002
  H      851.987      94.515    1456.970
  H      855.017      90.758    1457.969
  H      854.808      93.153    1458.649
  H      855.393      94.256    1461.988
  H      857.904      94.370    1460.692
  H      856.907      95.182    1458.627
  H      855.159      96.972    1460.383
  H      856.703      88.331    1460.270
  H      853.496      96.693    1458.555
  H      855.847      88.503    1458.748
  H      854.982      97.520    1458.004
  P      857.798      97.644    1457.925
  C      860.138      96.582    1457.906
  O      859.393      97.758    1457.692
  O      857.033      98.894    1457.594
  O      857.402      96.432    1456.897
  H      857.048      96.822    1456.083
  H      861.101      96.674    1457.411
  H      859.634      95.683    1457.594
  H      860.344      96.497    1459.019
  H      852.724      98.863    1455.123
  H      852.505      98.224    1456.734
  H      851.609      97.547    1455.396

 3  4  5  6  7  8  9  10  11  12  13  23  27  28  29  30  32 0
 6-311+G(2d,p)
 ****
 34  35 0
 6-311+G(2d,p)
 ****
 1  2  14  15  16  17  18  19  20  21  22  24  25  26 0
 3-21G
 ****
 31  33  36  37  38  39  40  41  42  43  44  45  46 0
 3-21G
 ****


