%nproc=1
%NoSave
%Mem=1900MB
#P OB98/GEN NMR

erre ene a

0 1
  C     1827.497    -226.517    -381.619
  O     1828.415    -225.842    -380.785
  H     1827.120    -227.379    -381.070
  H     1828.009    -226.878    -382.521
  H     1826.679    -225.867    -381.886
  P     1829.170    -224.567    -381.403
  C     1827.467    -222.950    -380.361
  O     1828.013    -223.457    -381.572
  C     1826.628    -221.689    -380.648
  O     1827.512    -220.662    -381.179
  C     1825.512    -221.887    -381.672
  O     1824.373    -221.070    -381.301
  C     1826.074    -221.355    -382.953
  O     1825.090    -220.983    -383.888
  C     1826.960    -220.238    -382.419
  N     1827.951    -219.450    -387.375
  C     1826.778    -219.642    -386.696
  N     1826.611    -219.805    -385.379
  C     1827.806    -219.726    -384.734
  C     1829.043    -219.547    -385.270
  C     1829.134    -219.423    -386.686
  N     1830.290    -219.290    -387.385
  N     1830.041    -219.577    -384.281
  C     1829.350    -219.772    -383.152
  N     1828.009    -219.889    -383.386
  O     1829.962    -224.824    -382.644
  O     1829.998    -224.017    -380.153
  H     1825.556    -220.713    -384.712
  H     1829.454    -223.980    -379.355
  H     1825.892    -219.639    -387.303
  H     1829.806    -219.832    -382.168
  H     1826.369    -219.298    -382.252
  H     1826.700    -222.156    -383.430
  H     1825.185    -222.954    -381.744
  H     1826.238    -221.302    -379.685
  H     1828.220    -222.730    -379.634
  H     1830.233    -219.188    -388.382
  H     1831.176    -219.248    -386.877
  H     1826.786    -223.729    -379.928
  P     1822.999    -221.800    -380.871
  C     1823.529    -221.430    -378.367
  O     1823.156    -222.391    -379.354
  O     1822.454    -222.797    -381.833
  O     1821.966    -220.574    -380.642
  H     1821.137    -220.798    -381.078
  H     1823.606    -221.909    -377.414
  H     1822.787    -220.660    -378.320
  H     1824.474    -221.000    -378.627

 6  7  8  9  10  11  12  13  14  15  25  28  32  33  34  35 0
 6-311+G(2d,p)
 ****
 36  39  40 0
 6-311+G(2d,p)
 ****
 1  2  3  4  5  16  17  18  19  20  21  22  23  24 0
 3-21G
 ****
 26  27  29  30  31  37  38  41  42  43  44  45  46  47 0
 3-21G
 ****
 48 0
 3-21G
 ****


