%nproc=1
%NoSave
%Mem=1900MB
#P OB98/GEN NMR

erre ene a

0 1
  C      151.849     -54.462     414.619
  O      150.794     -55.401     414.560
  H      152.799     -55.003     414.601
  H      151.789     -53.882     415.545
  H      151.807     -53.794     413.755
  P      149.302     -54.811     414.609
  C      148.189     -56.913     413.588
  O      148.364     -56.105     414.744
  C      147.727     -58.317     413.978
  O      148.841     -59.098     414.444
  C      146.689     -58.348     415.096
  O      145.389     -58.126     414.574
  C      146.853     -59.773     415.603
  O      146.128     -60.676     414.746
  C      148.363     -60.012     415.463
  N      149.277     -61.660     420.245
  C      148.307     -61.970     419.358
  N      148.093     -61.456     418.128
  C      149.018     -60.530     417.830
  C      150.064     -60.105     418.637
  C      150.181     -60.719     419.895
  N      151.174     -60.394     420.800
  N      150.811     -59.133     418.003
  C      150.259     -59.017     416.811
  N      149.148     -59.813     416.671
  O      148.949     -53.853     413.522
  O      149.265     -54.201     416.091
  H      146.360     -60.442     413.831
  H      149.713     -54.798     416.717
  H      147.602     -62.738     419.681
  H      150.632     -58.390     416.008
  H      148.580     -61.029     415.117
  H      146.454     -59.908     416.612
  H      146.939     -57.646     415.907
  H      147.338     -58.808     413.076
  H      149.130     -56.978     413.025
  H      151.066     -60.738     421.741
  H      151.766     -59.603     420.587
  H      147.437     -56.430     412.953
  P      144.526     -56.850     415.014
  C      143.729     -56.603     412.580
  O      143.334     -56.765     413.938
  O      145.313     -55.603     415.212
  O      143.764     -57.324     416.341
  H      143.428     -56.551     416.833
  H      142.859     -56.559     411.958
  H      144.337     -57.432     412.284
  H      144.287     -55.696     412.477

 6  7  8  9  10  11  12  13  14  15  25  28  32  33  34  35 0
 6-311+G(2d,p)
 ****
 36  39  40 0
 6-311+G(2d,p)
 ****
 1  2  3  4  5  16  17  18  19  20  21  22  23  24 0
 3-21G
 ****
 26  27  29  30  31  37  38  41  42  43  44  45  46  47 0
 3-21G
 ****
 48 0
 3-21G
 ****


