%nproc=1
%NoSave
%Mem=1900MB
#P OB98/GEN NMR

erre ene a

0 1
  C     -424.362    -892.960    -245.302
  O     -424.923    -892.760    -246.598
  P     -424.881    -893.940    -247.667
  C     -427.415    -893.970    -248.228
  O     -426.089    -893.770    -248.719
  C     -428.425    -893.810    -249.361
  O     -428.485    -892.430    -249.825
  C     -428.071    -894.620    -250.605
  O     -428.183    -896.020    -250.508
  C     -428.884    -893.930    -251.691
  O     -430.243    -894.390    -251.709
  C     -428.835    -892.450    -251.235
  N     -427.904    -891.650    -252.020
  C     -428.318    -891.330    -253.308
  O     -429.375    -891.720    -253.794
  N     -427.438    -890.570    -254.041
  C     -426.220    -890.130    -253.636
  O     -425.470    -889.470    -254.338
  C     -425.817    -890.500    -252.270
  C     -426.675    -891.240    -251.531
  O     -424.730    -895.320    -247.118
  O     -423.607    -893.560    -248.575
  H     -430.731    -893.830    -252.358
  H     -423.112    -894.380    -248.768
  H     -427.735    -890.310    -254.982
  H     -424.859    -890.190    -251.910
  H     -426.398    -891.530    -250.527
  H     -429.823    -891.990    -251.307
  H     -428.469    -894.100    -252.689
  H     -427.014    -894.430    -250.847
  H     -429.417    -894.050    -248.997
  H     -427.629    -893.280    -247.424
  H     -427.467    -894.990    -247.791
  P     -427.229    -897.040    -251.288
  C     -427.078    -898.960    -249.560
  O     -427.568    -898.530    -250.802
  O     -425.789    -896.680    -251.411
  O     -427.880    -897.020    -252.763
  H     -427.164    -897.140    -253.415
  H     -427.396    -900.000    -249.397
  H     -427.467    -898.350    -248.748
  H     -425.972    -898.930    -249.560
  H     -424.479    -892.069    -244.721
  H     -423.321    -893.191    -245.396
  H     -424.865    -893.770    -244.817

 3  4  5  6  7  8  9  10  11  12  13  23  28  29  30  31  32 0
 6-311+G(2d,p)
 ****
 33  34 0
 6-311+G(2d,p)
 ****
 1  2  14  15  16  17  18  19  20  21  22  24  25  26  27 0
 3-21G
 ****
 35  36  37  38  39  40  41  42  43  44  45 0
 3-21G
 ****


