%nproc=1
%NoSave
%Mem=1900MB
#P OB98/GEN NMR

erre ene a

0 1
  C     -737.359     408.578     452.128
  O     -737.736     409.858     451.658
  H     -738.182     408.157     452.711
  H     -736.482     408.647     452.778
  H     -737.143     407.915     451.285
  P     -736.629     410.751     450.911
  C     -736.717     412.609     449.115
  O     -737.434     411.603     449.821
  C     -737.140     412.629     447.651
  O     -736.676     411.440     446.979
  C     -738.649     412.650     447.458
  O     -739.174     413.942     447.719
  C     -738.764     412.173     446.023
  O     -738.501     413.234     445.103
  C     -737.649     411.108     445.966
  N     -738.153     409.749     446.156
  C     -739.111     409.315     445.228
  O     -739.470     410.052     444.312
  N     -739.642     408.054     445.386
  C     -739.245     407.298     446.356
  N     -739.815     406.060     446.442
  C     -738.233     407.708     447.345
  C     -737.741     408.934     447.193
  O     -735.436     410.034     450.375
  O     -736.228     411.850     452.008
  H     -738.246     412.803     444.264
  H     -735.491     411.533     452.559
  H     -737.934     407.041     448.139
  H     -736.991     409.320     447.872
  H     -737.127     411.134     445.001
  H     -739.757     411.778     445.814
  H     -739.122     411.899     448.103
  H     -736.670     413.502     447.167
  H     -740.508     405.825     445.753
  H     -735.651     412.373     449.200
  H     -739.526     405.355     447.109
  H     -736.886     413.591     449.569
  P     -740.539     414.108     448.549
  C     -741.557     415.970     450.014
  O     -740.400     415.518     449.310
  O     -740.919     412.946     449.403
  O     -741.610     414.432     447.406
  H     -741.846     413.620     446.883
  H     -741.347     416.911     450.477
  H     -741.820     415.254     450.764
  H     -742.370     416.083     449.328

 6  7  8  9  10  11  12  13  14  15  16  26  30  31  32  33  35 0
 6-311+G(2d,p)
 ****
 37  38 0
 6-311+G(2d,p)
 ****
 1  2  3  4  5  17  18  19  20  21  22  23  24  25 0
 3-21G
 ****
 27  28  29  34  36  39  40  41  42  43  44  45  46 0
 3-21G
 ****


