%nproc=1
%NoSave
%Mem=1900MB
#P OB98/GEN NMR

erre ene a

0 1
  C     -365.410     751.452    -136.548
  O     -365.198     752.600    -137.335
  H     -366.349     750.976    -136.857
  H     -365.495     751.730    -135.491
  H     -364.598     750.730    -136.679
  P     -363.839     753.416    -137.054
  C     -362.956     754.708    -134.964
  O     -363.768     753.642    -135.465
  C     -363.340     755.020    -133.523
  O     -364.722     755.445    -133.473
  C     -363.257     753.824    -132.591
  O     -361.914     753.567    -132.179
  C     -364.155     754.275    -131.438
  O     -363.465     755.119    -130.517
  C     -365.239     755.071    -132.172
  N     -369.614     753.741    -129.895
  C     -368.611     754.571    -129.516
  N     -367.477     754.879    -130.197
  C     -367.447     754.250    -131.386
  C     -368.402     753.376    -131.898
  C     -369.522     753.136    -131.097
  N     -370.531     752.254    -131.465
  N     -367.993     752.889    -133.139
  C     -366.837     753.481    -133.363
  N     -366.465     754.313    -132.323
  O     -364.174     754.880    -137.631
  O     -362.606     752.840    -137.678
  H     -364.113     755.356    -129.817
  H     -363.850     754.955    -138.546
  H     -368.720     755.039    -128.546
  H     -366.215     753.331    -134.245
  H     -365.500     755.991    -131.647
  H     -364.530     753.406    -130.878
  H     -363.674     752.923    -133.058
  H     -362.719     755.850    -133.171
  H     -363.127     755.600    -135.582
  H     -361.899     754.413    -135.035
  H     -371.294     752.112    -130.833
  H     -370.417     751.717    -132.310
  P     -361.324     752.089    -132.357
  C     -361.585     749.826    -131.073
  O     -362.116     751.123    -131.360
  O     -359.856     752.177    -131.709
  O     -361.267     751.602    -133.775
  H     -359.191     752.281    -132.399
  H     -362.236     749.317    -130.393
  H     -360.616     749.927    -130.631
  H     -361.506     749.264    -131.980

 6  7  8  9  10  11  12  13  14  15  25  28  32  33  34  35 0
 6-311+G(2d,p)
 ****
 36  37  40 0
 6-311+G(2d,p)
 ****
 1  2  3  4  5  16  17  18  19  20  21  22  23  24 0
 3-21G
 ****
 26  27  29  30  31  38  39 41  42  43  44  45  46  47  48 0
 3-21G
 ****


