%nproc=1
%NoSave
%Mem=1900MB
#P OB98/GEN NMR

erre ene a

0 1
  C      325.140     172.389     -22.731
  O      325.019     171.780     -21.464
  P      325.478     170.277     -21.165
  C      326.952     170.928     -19.124
  O      326.900     170.327     -20.412
  C      328.056     171.986     -18.998
  O      327.761     173.096     -19.871
  C      328.084     172.554     -17.574
  O      328.781     171.872     -16.548
  C      328.465     174.020     -17.740
  O      329.857     174.255     -17.509
  C      328.108     174.315     -19.200
  N      326.509     179.076     -18.463
  C      327.798     178.576     -18.433
  N      328.749     179.412     -17.960
  N      328.114     177.362     -18.807
  C      327.043     176.612     -19.161
  C      325.726     177.001     -19.248
  C      325.396     178.356     -18.870
  O      324.257     178.813     -18.804
  N      324.903     175.952     -19.575
  C      325.717     174.917     -19.652
  N      327.019     175.261     -19.367
  O      325.283     169.284     -22.266
  O      324.475     169.874     -19.966
  H      330.067     173.947     -16.607
  H      324.272     168.925     -20.063
  H      326.317     179.997     -18.089
  H      325.412     173.899     -19.870
  H      328.974     174.731     -19.733
  H      327.922     174.648     -17.022
  H      328.522     180.299     -17.528
  H      327.045     172.573     -17.221
  H      329.668     179.030     -17.762
  H      329.022     171.590     -19.334
  H      327.098     170.125     -18.394
  H      325.985     171.393     -18.899
  P      328.124     171.083     -15.320
  C      329.321     168.831     -15.522
  O      328.091     169.523     -15.677
  O      326.577     171.493     -15.366
  O      328.707     171.413     -13.982
  H      326.173     171.361     -14.491
  H      329.268     167.885     -16.068
  H      329.492     168.620     -14.460
  H      330.156     169.420     -15.916
  H      324.768     173.391     -22.682
  H      324.575     171.833     -23.449
  H      326.169     172.405     -23.022

 3  4  5  6  7  8  9  10  11  12  23  26  30  31 0
 6-311+G(2d,p)
 ****
 33  35  36  37  38 0
 6-311+G(2d,p)
 ****
 1  2  13  14  15  16  17  18  19  20  21  22  24  25 0
 3-21G
 ****
 27  28  29  32  34  39  40  41  42  43  44  45  46  47  48  49 0
 3-21G
 ****


