%nproc=1
%NoSave
%Mem=1900MB
#P OB98/GEN NMR

erre ene a

0 1
  C      255.970     173.711    -527.197
  O      256.388     173.222    -528.453
  H      256.562     174.585    -526.914
  H      254.919     174.006    -527.264
  H      256.068     172.934    -526.433
  P      257.922     172.768    -528.578
  C      258.134     170.685    -527.047
  O      257.959     171.173    -528.371
  C      258.757     169.292    -527.085
  O      259.100     168.908    -525.730
  C      257.850     168.197    -527.678
  O      258.492     167.574    -528.794
  C      257.721     167.171    -526.562
  O      257.768     165.825    -527.031
  C      258.895     167.492    -525.645
  N      259.402     163.699    -522.279
  C      260.084     163.984    -523.412
  N      259.968     165.069    -524.208
  C      259.058     165.928    -523.714
  C      258.307     165.786    -522.559
  C      258.495     164.598    -521.832
  N      257.763     164.282    -520.707
  N      257.471     166.873    -522.384
  C      257.682     167.635    -523.437
  N      258.618     167.097    -524.281
  O      258.584     173.335    -527.233
  O      258.632     173.263    -529.793
  H      258.645     165.702    -527.444
  H      259.413     173.804    -527.448
  H      260.804     163.238    -523.726
  H      257.158     168.553    -523.665
  H      259.819     166.994    -525.967
  H      256.763     167.323    -526.050
  H      256.869     168.580    -527.975
  H      259.696     169.354    -527.651
  H      257.160     170.624    -526.549
  H      257.880     163.360    -520.316
  H      257.011     164.897    -520.434
  H      258.767     171.382    -526.491
  P      257.804     167.786    -530.233
  C      259.211     169.777    -531.149
  O      258.922     168.385    -531.216
  O      256.826     169.031    -529.982
  O      257.064     166.592    -530.735
  H      256.075     169.001    -530.604
  H      259.972     170.018    -531.861
  H      259.552     170.023    -530.165
  H      258.326     170.336    -531.370

 6  7  8  9  10  11  12  13  14  15  25  28  32  33  34  35 0
 6-311+G(2d,p)
 ****
 36  39  40 0
 6-311+G(2d,p)
 ****
 1  2  3  4  5  16  17  18  19  20  21  22  23  24 0
 3-21G
 ****
 26  27  29  30  31  37  38  41  42  43  44  45  46  47  48 0
 3-21G
 ****


