%nproc=1
%NoSave
%Mem=1900MB
#P OB98/GEN NMR

erre ene a

0 1
  C     -307.584     153.868    -447.820
  O     -308.666     153.475    -446.974
  P     -310.109     153.345    -447.643
  C     -310.994     151.881    -445.694
  O     -311.136     153.096    -446.428
  C     -311.219     152.130    -444.207
  O     -312.229     153.131    -444.033
  C     -311.704     150.916    -443.427
  O     -310.632     150.047    -443.082
  C     -312.279     151.583    -442.181
  O     -311.227     151.876    -441.249
  C     -312.886     152.885    -442.759
  N     -317.442     153.813    -440.759
  C     -316.191     154.029    -440.229
  N     -316.134     154.604    -439.004
  N     -315.082     153.720    -440.844
  C     -315.274     153.190    -442.069
  C     -316.473     152.908    -442.712
  C     -317.701     153.219    -442.000
  O     -318.836     153.000    -442.382
  N     -316.285     152.383    -443.957
  C     -314.972     152.376    -444.101
  N     -314.318     152.824    -442.966
  O     -310.051     151.921    -448.387
  O     -310.477     154.447    -448.595
  H     -311.597     152.469    -440.570
  H     -310.687     151.910    -449.126
  H     -318.265     154.090    -440.242
  H     -314.450     152.054    -444.999
  H     -312.660     153.738    -442.109
  H     -313.003     150.945    -441.654
  H     -316.955     154.987    -438.541
  H     -312.500     150.392    -443.962
  H     -315.224     154.808    -438.622
  H     -310.279     152.519    -443.779
  H     -309.981     151.481    -445.842
  H     -311.715     151.145    -446.082
  P     -310.911     148.468    -443.267
  C     -308.335     148.211    -443.469
  O     -309.530     147.754    -442.868
  O     -311.018     148.294    -444.847
  O     -312.143     147.971    -442.564
  H     -311.556     147.515    -445.066
  H     -308.346     149.298    -443.613
  H     -308.200     147.723    -444.438
  H     -307.491     147.945    -442.822
  H     -306.682     153.915    -447.247
  H     -307.791     154.830    -448.240
  H     -307.469     153.153    -448.607

 3  4  5  6  7  8  9  10  11  12  23  26  30  31  33  0
 6-311+G(2d,p)
 ****
 35  36  37  38 0
 6-311+G(2d,p)
 ****
 1  2  13  14  15  16  17  18  19  20  21  22  24  25  27  28  29 0
 3-21G
 ****
 32  34  39  40  41  42  43  44  45  46  47  48  49 0
 3-21G
 ****


