%nproc=1
%NoSave
%Mem=1900MB
#P OB98/GEN NMR

erre ene a

0 1
  C     -893.360     142.467    -474.303
  O     -893.520     143.838    -474.616
  H     -893.880     141.872    -475.068
  H     -893.800     142.243    -473.328
  H     -892.300     142.198    -474.311
  P     -892.900     144.930    -473.621
  C     -892.460     146.284    -475.781
  O     -892.890     146.327    -474.423
  C     -893.510     146.936    -476.689
  O     -894.590     145.977    -476.857
  C     -894.090     148.226    -476.091
  O     -894.030     149.352    -476.974
  C     -895.490     147.799    -475.599
  O     -896.440     148.833    -475.530
  C     -895.840     146.654    -476.555
  N     -896.800     145.698    -476.007
  C     -898.150     145.892    -476.339
  O     -898.580     146.795    -477.087
  N     -899.040     145.009    -475.797
  C     -898.730     143.971    -474.958
  O     -899.550     143.195    -474.505
  C     -897.290     143.832    -474.614
  C     -896.420     144.690    -475.139
  O     -891.620     144.565    -472.961
  O     -894.070     145.159    -472.535
  H     -897.150     148.539    -474.942
  H     -893.840     144.689    -471.712
  H     -900.000     145.117    -476.041
  H     -897.020     143.038    -473.948
  H     -895.360     144.608    -474.924
  H     -896.250     147.033    -477.486
  H     -895.370     147.393    -474.572
  H     -893.510     148.548    -475.233
  H     -893.070     147.110    -477.671
  H     -892.320     145.238    -476.061
  H     -891.510     146.827    -475.867
  P     -893.550     150.807    -476.552
  C     -892.560     151.191    -478.944
  O     -893.370     151.681    -477.893
  O     -892.440     150.871    -475.541
  O     -894.890     151.445    -475.858
  H     -894.570     152.040    -475.163
  H     -892.555     151.896    -479.749
  H     -892.951     150.257    -479.290
  H     -891.561     151.049    -478.588

 6  7  8  9  10  11  12  13  14  15  16  26  31  32  33  34  35 0
 6-311+G(2d,p)
 ****
 36  37 0
 6-311+G(2d,p)
 ****
 1  2  3  4  5  17  18  19  20  21  22  23  24  25 0
 3-21G
 ****
 27  28  29  30  38  39  40  41  42  43  44  45 0
 3-21G
 ****


