%nproc=1
%NoSave
%Mem=1900MB
#P OB98/GEN NMR

erre ene a

0 1
  C     -186.484    -113.508    -238.999
  O     -185.642    -114.167    -239.947
  P     -184.299    -114.821    -239.359
  C     -182.699    -112.799    -239.627
  O     -183.417    -113.635    -238.732
  C     -181.435    -112.237    -238.963
  O     -180.531    -111.683    -239.967
  C     -181.721    -111.118    -237.949
  O     -180.750    -111.258    -236.902
  C     -181.454    -109.866    -238.768
  O     -181.287    -108.702    -237.978
  C     -180.234    -110.328    -239.556
  N     -177.290    -106.529    -241.267
  C     -177.368    -107.141    -240.064
  N     -178.186    -108.146    -239.686
  C     -178.976    -108.517    -240.706
  C     -179.014    -107.989    -241.986
  C     -178.114    -106.943    -242.258
  N     -178.041    -106.300    -243.472
  N     -179.982    -108.625    -242.750
  C     -180.560    -109.466    -241.910
  N     -179.933    -109.495    -240.698
  O     -183.488    -115.251    -240.670
  O     -184.547    -115.970    -238.439
  H     -180.616    -108.865    -237.285
  H     -183.602    -116.203    -240.844
  H     -176.686    -106.769    -239.303
  H     -181.426    -110.073    -242.132
  H     -179.328    -110.363    -238.936
  H     -182.303    -109.687    -239.442
  H     -182.724    -111.163    -237.515
  H     -180.908    -113.063    -238.473
  H     -183.331    -111.968    -239.954
  H     -177.369    -105.556    -243.570
  H     -178.646    -106.570    -244.233
  H     -182.450    -113.371    -240.528
  P     -181.188    -111.966    -235.530
  C     -182.578    -109.981    -234.689
  O     -182.610    -111.309    -235.173
  O     -180.225    -111.214    -234.489
  O     -181.087    -113.453    -235.492
  H     -180.271    -110.248    -234.604
  H     -183.607    -109.626    -234.564
  H     -182.063    -109.330    -235.402
  H     -182.072    -109.947    -233.720
  H     -187.343    -113.113    -239.499
  H     -185.943    -112.710    -238.536
  H     -186.796    -114.208    -238.252

 3  4  5  6  7  8  9  10  11  12  22  25  29  30  31  32 0
 6-311+G(2d,p)
 ****
 33  36  37 0
 6-311+G(2d,p)
 ****
 1  2  13  14  15  16  17  18  19  20  21  23  24  26 0
 3-21G
 ****
 27  28  34  35  38  39  40  41  42  43  44  45  46  47  48 0
 3-21G
 ****


