%nproc=1
%NoSave
%Mem=1900MB
#P OB98/GEN NMR

erre ene a

0 1
  C      588.787      96.302     -24.515
  O      588.630      97.712     -24.624
  P      589.067      98.598     -23.353
  C      587.192     100.353     -23.686
  O      588.586     100.115     -23.602
  C      586.854     101.279     -24.870
  O      587.171     102.668     -24.536
  C      587.611     100.936     -26.151
  O      586.752     101.247     -27.258
  C      588.762     101.928     -26.144
  O      589.333     102.095     -27.445
  C      588.062     103.154     -25.563
  N      590.588     107.498     -26.477
  C      589.718     106.777     -27.229
  N      589.109     105.623     -26.925
  C      589.438     105.229     -25.673
  C      590.307     105.858     -24.796
  C      590.902     107.046     -25.243
  N      591.812     107.759     -24.494
  N      590.433     105.125     -23.629
  C      589.637     104.082     -23.804
  N      588.997     104.117     -25.007
  O      590.663      98.674     -23.491
  O      588.660      98.006     -22.043
  H      588.623     102.402     -28.045
  H      591.082      98.122     -22.808
  H      589.498     107.189     -28.211
  H      589.508     103.267     -23.092
  H      587.460     103.693     -26.315
  H      589.540     101.578     -25.469
  H      587.964      99.906     -26.217
  H      585.774     101.229     -25.050
  H      586.829     100.808     -22.761
  H      592.218     108.594     -24.910
  H      592.092     107.406     -23.599
  H      586.675      99.396     -23.776
  P      585.679     100.129     -27.662
  C      586.109     100.575     -30.180
  O      585.166     100.503     -29.126
  O      584.426     100.450     -26.715
  O      586.167      98.729     -27.490
  H      583.896      99.650     -26.578
  H      585.655     100.137     -31.083
  H      587.036     100.039     -29.941
  H      586.344     101.625     -30.377
  H      588.462      95.836     -25.422
  H      588.200      95.940     -23.697
  H      589.817      96.070     -24.344

 3  4  5  6  7  8  9  10  11  12  22  25  29  30  31  32 0
 6-311+G(2d,p)
 ****
 33  36  37 0
 6-311+G(2d,p)
 ****
 1  2  13  14  15  16  17  18  19  20  21  23  24  26 0
 3-21G
 ****
 27  28  34  35  38  39  40  41  42  43  44  45  46  47  48 0
 3-21G
 ****


