%nproc=1
%NoSave
%Mem=1900MB
#P OB98/GEN NMR

erre ene a

0 1
  C     -385.354    -337.413     -36.135
  O     -385.620    -337.932     -34.841
  P     -384.429    -337.931     -33.766
  C     -384.971    -335.581     -32.795
  O     -384.029    -336.402     -33.469
  C     -384.436    -335.160     -31.420
  O     -383.093    -334.626     -31.564
  C     -385.285    -334.077     -30.738
  O     -385.258    -334.280     -29.318
  C     -384.531    -332.800     -31.029
  O     -384.827    -331.783     -30.072
  C     -383.086    -333.302     -30.985
  N     -380.325    -329.077     -30.686
  C     -380.919    -329.806     -29.676
  N     -380.840    -329.291     -28.433
  N     -381.536    -330.944     -29.873
  C     -381.542    -331.336     -31.170
  C     -380.977    -330.705     -32.258
  C     -380.310    -329.442     -32.033
  O     -379.784    -328.728     -32.883
  N     -381.163    -331.421     -33.408
  C     -381.874    -332.468     -33.038
  N     -382.165    -332.443     -31.695
  O     -383.181    -338.490     -34.611
  O     -384.676    -338.775     -32.561
  H     -385.798    -331.653     -30.091
  H     -382.994    -339.414     -34.356
  H     -379.875    -328.200     -30.488
  H     -382.230    -333.249     -33.690
  H     -382.730    -333.406     -29.950
  H     -384.791    -332.425     -32.027
  H     -380.440    -328.390     -28.224
  H     -386.325    -334.036     -31.083
  H     -381.303    -329.786     -27.681
  H     -384.358    -336.048     -30.787
  H     -385.897    -336.146     -32.655
  H     -385.195    -334.696     -33.399
  P     -386.530    -333.736     -28.507
  C     -387.503    -336.075     -27.898
  O     -387.652    -334.871     -28.627
  O     -387.079    -332.554     -29.435
  O     -386.220    -333.272     -27.122
  H     -387.572    -331.901     -28.904
  H     -388.320    -336.156     -27.179
  H     -386.548    -336.115     -27.362
  H     -387.549    -336.919     -28.596
  H     -386.237    -337.481     -36.735
  H     -384.569    -337.978     -36.592
  H     -385.055    -336.389     -36.054

 3  4  5  6  7  8  9  10  11  12  23  26  30  31 0
 6-311+G(2d,p)
 ****
 33  35  36  37  38 0
 6-311+G(2d,p)
 ****
 1  2  13  14  15  16  17  18  19  20  21  22  24  25 0
 3-21G
 ****
 27  28  29  32  34  39  40  41  42  43  44  45  46  47  48  49 0
 3-21G
 ****


