%nproc=1
%NoSave
%Mem=1900MB
#P OB98/GEN NMR

erre ene a

0 1
  C       38.974    -223.022    -319.138
  O       39.080    -223.397    -320.496
  H       37.922    -222.915    -318.859
  H       39.426    -223.802    -318.520
  H       39.504    -222.082    -318.962
  P       38.452    -222.378    -321.566
  C       36.432    -222.444    -323.182
  O       37.046    -223.004    -322.031
  C       35.131    -223.180    -323.490
  O       35.467    -224.480    -324.044
  C       34.228    -223.400    -322.267
  O       32.887    -222.978    -322.546
  C       34.228    -224.906    -322.070
  O       32.985    -225.404    -321.590
  C       34.554    -225.423    -323.466
  N       33.774    -230.318    -324.658
  C       33.214    -229.186    -325.130
  N       33.532    -227.908    -324.843
  C       34.574    -227.858    -323.991
  C       35.261    -228.928    -323.442
  C       34.810    -230.212    -323.792
  N       35.345    -231.366    -323.268
  N       36.268    -228.486    -322.602
  C       36.157    -227.171    -322.610
  N       35.138    -226.747    -323.422
  O       39.395    -222.568    -322.849
  O       38.413    -220.956    -321.119
  H       32.282    -224.995    -322.126
  H       39.827    -221.716    -323.049
  H       32.393    -229.322    -325.830
  H       36.751    -226.488    -322.016
  H       33.664    -225.461    -324.105
  H       35.012    -225.173    -321.352
  H       34.594    -222.882    -321.376
  H       34.592    -222.628    -324.271
  H       37.107    -222.539    -324.040
  H       34.886    -232.237    -323.482
  H       36.041    -231.287    -322.539
  H       36.238    -221.382    -323.003
  P       32.338    -221.739    -321.675
  C       31.496    -221.635    -319.219
  O       31.472    -222.333    -320.458
  O       31.250    -221.070    -322.639
  O       33.397    -220.761    -321.287
  H       31.466    -220.130    -322.782
  H       30.878    -222.145    -318.510
  H       31.128    -220.641    -319.363
  H       32.500    -221.594    -318.852

 6  7  8  9  10  11  12  13  14  15  25  28  32  33  34  35 0
 6-311+G(2d,p)
 ****
 36  39  40 0
 6-311+G(2d,p)
 ****
 1  2  3  4  5  16  17  18  19  20  21  22  23  24 0
 3-21G
 ****
 26  27  29  30  31  37  38  41  42  43  44  45  46  47  48 0
 3-21G
 ****


