%nproc=1
%NoSave
%Mem=1900MB
#P OB98/GEN NMR

erre ene a

0 1
  C      -72.853     183.887    -473.366
  O      -73.354     184.872    -472.484
  H      -71.764     183.982    -473.419
  H      -73.266     184.039    -474.366
  H      -73.102     182.884    -473.007
  P      -74.911     184.776    -472.106
  C      -75.332     186.341    -474.136
  O      -75.727     185.174    -473.431
  C      -76.548     187.022    -474.757
  O      -77.271     186.091    -475.598
  C      -77.560     187.548    -473.741
  O      -77.182     188.822    -473.230
  C      -78.800     187.652    -474.611
  O      -78.717     188.829    -475.443
  C      -78.691     186.385    -475.468
  N      -82.626     183.221    -475.948
  C      -82.263     184.316    -476.716
  N      -83.072     184.611    -477.756
  N      -81.210     185.049    -476.488
  C      -80.499     184.646    -475.405
  C      -80.755     183.582    -474.568
  C      -81.918     182.768    -474.839
  O      -82.273     181.779    -474.202
  N      -79.804     183.473    -473.587
  C      -78.987     184.483    -473.815
  N      -79.367     185.228    -474.905
  O      -75.138     186.038    -471.143
  O      -75.331     183.506    -471.445
  H      -77.903     188.744    -475.968
  H      -75.785     185.796    -470.453
  H      -83.454     182.697    -476.162
  H      -78.108     184.716    -473.229
  H      -79.088     186.530    -476.480
  H      -79.717     187.740    -474.026
  H      -83.927     184.117    -477.959
  H      -77.733     186.826    -472.937
  H      -82.812     185.386    -478.355
  H      -76.188     187.838    -475.402
  H      -74.630     186.063    -474.927
  H      -74.832     187.025    -473.440
  P      -77.687     189.209    -471.755
  C      -79.526     190.697    -472.830
  O      -79.224     189.641    -471.925
  O      -76.941     190.604    -471.474
  O      -77.398     188.195    -470.702
  H      -76.869     190.751    -470.513
  H      -80.582     190.870    -472.836
  H      -79.203     190.427    -473.814
  H      -79.020     191.588    -472.521

 6  7  8  9  10  11  12  13  14  15  26  29  33  34 0
 6-311+G(2d,p)
 ****
 36  38  39  40  41 0
 6-311+G(2d,p)
 ****
 1  2  3  4  5  16  17  18  19  20  21  22  23  24  25 0
 3-21G
 ****
 27  28  30  31  32  35  37  42  43  44  45  46  47 0
 3-21G
 ****
 48  49 0
 3-21G
 ****


