%nproc=1
%NoSave
%Mem=1900MB
#P OB98/GEN NMR

erre ene a

0 1
  C     -101.192     142.279     -77.275
  O     -101.145     141.780     -78.596
  H     -101.646     143.273     -77.295
  H     -100.183     142.367     -76.865
  H     -101.799     141.631     -76.640
  P     -100.513     140.326     -78.842
  C      -98.338     141.268     -79.887
  O      -98.925     140.576     -78.796
  C      -96.941     141.755     -79.512
  O      -96.996     142.767     -78.484
  C      -96.020     140.683     -78.943
  O      -95.536     139.769     -79.911
  C      -94.918     141.558     -78.374
  O      -94.087     142.046     -79.443
  C      -95.746     142.700     -77.741
  N      -96.006     142.486     -76.318
  C      -94.949     142.756     -75.441
  O      -93.862     143.143     -75.866
  N      -95.135     142.547     -74.096
  C      -96.269     142.087     -73.666
  N      -96.397     141.892     -72.324
  C      -97.402     141.771     -74.556
  C      -97.206     141.993     -75.854
  O     -101.013     139.589     -80.042
  O     -100.755     139.545     -77.466
  H      -93.578     141.284     -79.776
  H     -100.391     138.633     -77.569
  H      -98.316     141.361     -74.152
  H      -97.989     141.779     -76.572
  H      -95.242     143.666     -77.868
  H      -94.267     141.034     -77.673
  H      -96.503     140.152     -78.113
  H      -96.506     142.225     -80.404
  H      -95.604     142.117     -71.739
  H      -98.989     142.108     -80.149
  H      -97.216     141.467     -71.912
  H      -98.250     140.602     -80.750
  P      -95.671     138.203     -79.567
  C      -93.449     138.020     -78.206
  O      -94.867     137.972     -78.202
  O      -94.759     137.509     -80.681
  O      -97.070     137.675     -79.555
  H      -95.307     137.174     -81.417
  H      -93.083     137.845     -77.216
  H      -93.126     138.984     -78.541
  H      -93.069     137.268     -78.865

 6  7  8  9  10  11  12  13  14  15  16  26  30  31  32  33  35 0
 6-311+G(2d,p)
 ****
 37  38 0
 6-311+G(2d,p)
 ****
 1  2  3  4  5  17  18  19  20  21  22  23  24  25 0
 3-21G
 ****
 27  28  29  34  36  39  40  41  42  43  44  45  46 0
 3-21G
 ****


