%nproc=1
%NoSave
%Mem=1900MB
#P OB98/GEN NMR

erre ene a

0 1
  C     -208.283     101.288     179.348
  O     -208.335      99.960     179.837
  H     -207.400     101.779     179.763
  H     -209.172     101.850     179.647
  H     -208.199     101.282     178.257
  P     -209.674      99.112     179.578
  C     -208.614      97.251     181.025
  O     -209.763      98.066     180.796
  C     -208.438      96.955     182.518
  O     -207.861      98.095     183.184
  C     -209.748      96.689     183.246
  O     -210.369      95.472     182.891
  C     -209.372      96.946     184.699
  O     -208.809      95.809     185.347
  C     -208.296      98.052     184.558
  N     -208.783      99.350     185.016
  C     -208.689      99.583     186.384
  O     -208.247      98.760     187.186
  N     -209.161     100.795     186.817
  C     -209.753     101.746     186.035
  O     -210.193     102.795     186.492
  C     -209.848     101.430     184.602
  C     -209.366     100.264     184.162
  O     -209.790      98.475     178.224
  O     -210.849     100.148     179.903
  H     -208.647      96.062     186.279
  H     -211.710      99.839     179.531
  H     -209.089     100.986     187.803
  H     -210.313     102.162     183.953
  H     -209.427     100.006     183.107
  H     -207.410      97.798     185.156
  H     -210.237      97.255     185.287
  H     -210.457      97.478     182.970
  H     -207.748      96.110     182.623
  H     -207.741      97.801     180.662
  H     -208.706      96.318     180.458
  P     -211.872      95.104     183.291
  C     -211.101      92.651     182.910
  O     -211.926      93.538     183.658
  O     -212.956      95.678     182.437
  O     -211.989      95.796     184.745
  H     -212.907      96.114     184.847
  H     -211.241      91.651     183.263
  H     -210.075      92.931     183.030
  H     -211.366      92.705     181.875

 6  7  8  9  10  11  12  13  14  15  16  26  31  32  33  34  35 0
 6-311+G(2d,p)
 ****
 36  37 0
 6-311+G(2d,p)
 ****
 1  2  3  4  5  17  18  19  20  21  22  23  24  25 0
 3-21G
 ****
 27  28  29  30  38  39  40  41  42  43  44  45 0
 3-21G
 ****


