%nproc=1
%NoSave
%Mem=1900MB
#P OB98/GEN NMR

erre ene a

0 1
  C     -905.386     685.165    -487.395
  O     -906.523     685.885    -487.827
  H     -905.288     684.261    -488.010
  H     -905.503     684.863    -486.347
  H     -904.482     685.764    -487.514
  P     -906.927     687.220    -487.046
  C     -908.102     687.791    -489.274
  O     -908.150     687.879    -487.855
  C     -909.501     687.999    -489.870
  O     -910.252     686.774    -489.665
  C     -910.262     689.147    -489.191
  O     -910.775     690.112    -490.115
  C     -911.271     688.424    -488.302
  O     -912.441     689.158    -488.015
  C     -911.507     687.109    -489.048
  N     -911.961     686.015    -488.201
  C     -913.334     685.747    -488.183
  O     -914.177     686.340    -488.860
  N     -913.731     684.725    -487.358
  C     -912.922     683.981    -486.559
  O     -913.327     683.064    -485.848
  C     -911.492     684.325    -486.590
  C     -911.084     685.314    -487.399
  O     -905.811     688.158    -486.730
  O     -907.635     686.683    -485.710
  H     -913.076     688.558    -487.590
  H     -907.018     686.765    -484.957
  H     -914.715     684.510    -487.354
  H     -910.817     683.756    -485.968
  H     -910.036     685.588    -487.454
  H     -912.247     687.238    -489.841
  H     -910.787     688.207    -487.339
  H     -909.595     689.732    -488.556
  H     -909.405     688.157    -490.951
  H     -907.715     686.801    -489.541
  H     -907.418     688.558    -489.667
  P     -910.212     691.595    -490.281
  C     -910.050     691.972    -492.870
  O     -910.769     692.191    -491.657
  O     -908.747     691.769    -490.012
  O     -911.020     692.425    -489.157
  H     -910.415     693.129    -488.842
  H     -910.568     692.440    -493.681
  H     -909.974     690.921    -493.055
  H     -909.069     692.391    -492.784

 6  7  8  9  10  11  12  13  14  15  16  26  31  32  33  34  35 0
 6-311+G(2d,p)
 ****
 36  37 0
 6-311+G(2d,p)
 ****
 1  2  3  4  5  17  18  19  20  21  22  23  24  25 0
 3-21G
 ****
 27  28  29  30  38  39  40  41  42  43  44  45 0
 3-21G
 ****


