%nproc=1
%NoSave
%Mem=1900MB
#P OB98/GEN NMR

erre ene a

0 1
  C     -223.875     425.412     -71.339
  O     -225.165     425.346     -71.908
  H     -223.842     426.254     -70.644
  H     -223.133     425.575     -72.126
  H     -223.636     424.497     -70.792
  P     -225.600     424.013     -72.678
  C     -226.691     425.639     -74.359
  O     -226.803     424.407     -73.663
  C     -228.072     426.236     -74.654
  O     -228.898     425.244     -75.310
  C     -228.780     426.612     -73.349
  O     -229.688     427.696     -73.523
  C     -229.564     425.352     -73.016
  O     -230.662     425.595     -72.142
  C     -229.964     424.881     -74.412
  N     -231.926     421.057     -77.147
  C     -231.995     422.417     -77.373
  N     -232.696     422.810     -78.458
  N     -231.438     423.309     -76.595
  C     -230.833     422.775     -75.507
  C     -230.722     421.447     -75.162
  C     -231.307     420.468     -76.052
  O     -231.292     419.250     -75.893
  N     -230.053     421.292     -73.974
  C     -229.766     422.522     -73.598
  N     -230.208     423.457     -74.502
  O     -226.343     423.149     -71.552
  O     -224.487     423.239     -73.316
  H     -231.253     426.234     -72.583
  H     -226.306     422.202     -71.772
  H     -232.356     420.412     -77.785
  H     -229.241     422.788     -72.688
  H     -230.876     425.394     -74.747
  H     -228.892     424.655     -72.506
  H     -233.283     422.177     -78.979
  H     -228.073     426.866     -72.558
  H     -233.002     423.787     -78.475
  H     -227.981     427.081     -75.344
  H     -226.165     425.433     -75.298
  H     -226.081     426.342     -73.789
  P     -229.228     429.139     -73.001
  C     -231.635     430.107     -72.614
  O     -230.412     430.173     -73.319
  O     -228.062     429.551     -74.013
  O     -228.770     429.145     -71.582
  H     -227.193     429.468     -73.578
  H     -232.292     430.874     -72.967
  H     -231.452     430.247     -71.569
  H     -232.087     429.150     -72.772

 6  7  8  9  10  11  12  13  14  15  26  29  33  34 0
 6-311+G(2d,p)
 ****
 36  38  39  40  41 0
 6-311+G(2d,p)
 ****
 1  2  3  4  5  16  17  18  19  20  21  22  23  24  25 0
 3-21G
 ****
 27  28  30  31  32  35  37  42  43  44  45  46  47 0
 3-21G
 ****
 48  49 0
 3-21G
 ****


