%nproc=1
%NoSave
%Mem=1900MB
#P OB98/GEN NMR

erre ene a

0 1
  C      100.327     -26.474    -308.132
  O      100.821     -25.698    -307.058
  H      100.159     -25.818    -308.989
  H       99.373     -26.929    -307.846
  H      101.044     -27.251    -308.415
  P      101.446     -26.499    -305.813
  C       99.209     -26.454    -304.493
  O      100.220     -27.249    -305.094
  C       98.827     -27.020    -303.133
  O       98.406     -28.398    -303.254
  C       99.962     -27.007    -302.105
  O      100.078     -25.741    -301.469
  C       99.476     -28.066    -301.134
  O       98.432     -27.513    -300.297
  C       98.875     -29.118    -302.079
  N      100.705     -33.743    -301.081
  C       99.793     -32.982    -300.376
  N       99.305     -33.523    -299.239
  N       99.394     -31.790    -300.748
  C       99.989     -31.364    -301.889
  C      100.906     -32.027    -302.674
  C      101.327     -33.345    -302.257
  O      102.123     -34.067    -302.853
  N      101.285     -31.276    -303.760
  C      100.603     -30.154    -303.621
  N       99.805     -30.155    -302.500
  O      101.825     -25.320    -304.791
  O      102.635     -27.344    -306.132
  H       98.269     -28.156    -299.583
  H      102.787     -25.164    -304.832
  H      100.983     -34.649    -300.739
  H      100.644     -29.315    -304.302
  H       98.007     -29.631    -301.641
  H      100.260     -28.423    -300.465
  H       99.585     -34.425    -298.882
  H      100.915     -27.329    -302.551
  H       98.634     -32.982    -298.708
  H       97.965     -26.450    -302.758
  H       98.324     -26.447    -305.147
  H       99.577     -25.428    -304.383
  P      101.548     -25.161    -301.196
  C      101.969     -26.296    -298.904
  O      102.315     -26.233    -300.282
  O      101.266     -23.944    -300.195
  O      102.287     -24.702    -302.410
  H      101.449     -23.094    -300.643
  H      102.556     -27.050    -298.423
  H      100.931     -26.537    -298.808
  H      102.159     -25.349    -298.445

 6  7  8  9  10  11  12  13  14  15  26  29  33  34 0
 6-311+G(2d,p)
 ****
 36  38  39  40  41 0
 6-311+G(2d,p)
 ****
 1  2  3  4  5  16  17  18  19  20  21  22  23  24  25 0
 3-21G
 ****
 27  28  30  31  32  35  37  42  43  44  45  46  47 0
 3-21G
 ****
 48  49 0
 3-21G
 ****


