%nproc=1
%NoSave
%Mem=1900MB
#P OB98/GEN NMR

erre ene a

0 1
  C      124.847     574.305    -429.782
  O      124.787     572.894    -429.739
  P      125.113     572.090    -428.388
  C      122.661     571.851    -427.615
  O      123.929     572.435    -427.349
  C      122.392     570.683    -426.643
  O      122.567     571.165    -425.272
  C      120.956     570.112    -426.769
  O      120.898     568.696    -426.964
  C      120.276     570.630    -425.506
  O      119.128     569.897    -425.135
  C      121.453     570.647    -424.514
  N      121.168     571.456    -423.330
  C      120.336     570.908    -422.364
  O      119.839     569.769    -422.434
  N      120.018     571.700    -421.293
  C      120.354     573.020    -421.162
  O      119.954     573.716    -420.235
  C      121.199     573.574    -422.238
  C      121.582     572.778    -423.237
  O      126.493     572.278    -427.850
  O      124.768     570.567    -428.784
  H      119.414     569.037    -424.796
  H      123.840     570.416    -429.068
  H      119.413     571.309    -420.592
  H      121.466     574.614    -422.160
  H      122.213     573.161    -424.051
  H      121.710     569.644    -424.189
  H      119.960     571.660    -425.704
  H      120.448     570.527    -427.646
  H      123.147     569.911    -426.844
  H      122.651     571.471    -428.640
  H      121.868     572.609    -427.536
  P      119.660     567.902    -427.609
  C      120.211     568.243    -430.140
  O      119.346     568.548    -429.043
  O      118.469     567.746    -426.708
  O      120.282     566.475    -427.975
  H      119.580     565.793    -427.936
  H      120.181     569.088    -430.846
  H      119.834     567.351    -430.654
  H      121.235     568.079    -429.808
  H      124.597     574.643    -430.766
  H      125.837     574.628    -429.535
  H      124.153     574.713    -429.078

 3  4  5  6  7  8  9  10  11  12  13  23  28  29  30  31  32 0
 6-311+G(2d,p)
 ****
 33  34 0
 6-311+G(2d,p)
 ****
 1  2  14  15  16  17  18  19  20  21  22  24  25  26  27 0
 3-21G
 ****
 35  36  37  38  39  40  41  42  43  44  45 0
 3-21G
 ****


