%nproc=1
%NoSave
%Mem=1900MB
#P OB98/GEN NMR

erre ene a

0 1
  C      -95.804     -55.121    -148.491
  O      -96.209     -56.412    -148.092
  H      -96.605     -54.416    -148.258
  H      -95.625     -55.105    -149.570
  H      -94.900     -54.808    -147.964
  P      -95.113     -57.577    -148.019
  C      -94.185     -59.354    -149.644
  O      -95.205     -58.399    -149.394
  C      -94.722     -60.513    -150.494
  O      -95.640     -61.299    -149.691
  C      -95.513     -60.001    -151.705
  O      -95.476     -60.917    -152.796
  C      -96.934     -59.929    -151.170
  O      -97.923     -59.977    -152.198
  C      -96.965     -61.129    -150.225
  N     -100.140     -63.472    -146.995
  C      -99.485     -63.980    -148.100
  N      -99.706     -65.288    -148.378
  N      -98.708     -63.270    -148.874
  C      -98.638     -61.964    -148.518
  C      -99.256     -61.337    -147.460
  C     -100.088     -62.143    -146.591
  O     -100.707     -61.736    -145.612
  N      -98.955     -59.998    -147.424
  C      -98.161     -59.813    -148.459
  N      -97.917     -60.982    -149.140
  O      -95.731     -58.610    -146.959
  O      -93.734     -57.144    -147.623
  H      -98.795     -59.901    -151.767
  H      -95.027     -59.163    -146.575
  H     -100.703     -64.068    -146.417
  H      -97.723     -58.865    -148.748
  H      -97.226     -62.043    -150.772
  H      -97.056     -58.974    -150.650
  H     -100.442     -65.809    -147.930
  H      -95.173     -59.027    -152.048
  H      -99.495     -65.589    -149.334
  H      -93.902     -61.180    -150.782
  H      -93.842     -59.717    -148.672
  H      -93.332     -58.881    -150.132
  P      -94.417     -60.665    -153.972
  C      -93.745     -58.594    -155.479
  O      -94.681     -59.240    -154.644
  O      -94.849     -61.707    -155.104
  O      -92.986     -60.842    -153.564
  H      -94.147     -62.370    -155.241
  H      -94.146     -57.657    -155.806
  H      -93.540     -59.211    -156.329
  H      -92.840     -58.424    -154.935

 6  7  8  9  10  11  12  13  14  15  26  29  33  34 0
 6-311+G(2d,p)
 ****
 36  38  39  40  41 0
 6-311+G(2d,p)
 ****
 1  2  3  4  5  16  17  18  19  20  21  22  23  24  25 0
 3-21G
 ****
 27  28  30  31  32  35  37  42  43  44  45  46  47 0
 3-21G
 ****
 48  49 0
 3-21G
 ****


