%nproc=1
%NoSave
%Mem=1900MB
#P OB98/GEN NMR

erre ene a

0 1
  C     -622.110     -36.102     106.327
  O     -622.920     -36.584     107.381
  H     -621.243     -35.584     106.760
  H     -622.660     -35.401     105.693
  H     -621.741     -36.941     105.725
  P     -624.376     -37.157     107.010
  C     -625.531     -34.974     107.783
  O     -625.282     -35.864     106.693
  C     -626.443     -33.821     107.360
  O     -625.781     -33.013     106.357
  C     -627.741     -34.269     106.708
  O     -628.645     -34.894     107.595
  C     -628.174     -33.032     105.941
  O     -628.923     -32.110     106.732
  C     -626.810     -32.400     105.556
  N     -626.536     -32.530     104.126
  C     -627.365     -31.799     103.279
  O     -628.293     -31.095     103.686
  N     -627.120     -31.929     101.942
  C     -626.182     -32.747     101.379
  O     -626.039     -32.853     100.163
  C     -625.350     -33.517     102.322
  C     -625.560     -33.375     103.638
  O     -624.982     -38.091     108.015
  O     -624.167     -37.813     105.566
  H     -629.167     -31.364     106.151
  H     -624.908     -38.429     105.343
  H     -627.701     -31.402     101.317
  H     -624.596     -34.172     101.909
  H     -624.965     -33.938     104.351
  H     -626.810     -31.333     105.803
  H     -628.793     -33.286     105.078
  H     -627.494     -35.028     105.949
  H     -626.635     -33.190     108.233
  H     -624.563     -34.567     108.106
  H     -625.979     -35.528     108.613
  P     -629.644     -36.060     107.149
  C     -631.689     -34.459     107.131
  O     -630.905     -35.393     106.405
  O     -629.901     -37.146     108.154
  O     -628.835     -36.729     105.931
  H     -629.018     -37.684     105.935
  H     -632.485     -34.103     106.511
  H     -631.076     -33.635     107.431
  H     -632.097     -34.934     107.998

 6  7  8  9  10  11  12  13  14  15  16  26  31  32  33  34  35 0
 6-311+G(2d,p)
 ****
 36  37 0
 6-311+G(2d,p)
 ****
 1  2  3  4  5  17  18  19  20  21  22  23  24  25 0
 3-21G
 ****
 27  28  29  30  38  39  40  41  42  43  44  45 0
 3-21G
 ****


