%nproc=1
%NoSave
%Mem=1900MB
#P OB98/GEN NMR

erre ene a

0 1
  C     -898.310    -868.562      81.203
  O     -896.980    -868.315      80.757
  P     -896.590    -867.169      79.707
  C     -895.340    -865.692      81.424
  O     -896.420    -865.774      80.521
  C     -895.260    -864.284      82.030
  O     -896.550    -863.886      82.561
  C     -894.320    -864.137      83.242
  O     -892.950    -864.176      82.867
  C     -894.790    -862.803      83.822
  O     -894.170    -861.708      83.167
  C     -896.310    -862.816      83.496
  N     -897.140    -863.009      84.684
  C     -897.250    -861.906      85.541
  O     -896.630    -860.874      85.337
  N     -898.070    -862.012      86.645
  C     -898.670    -863.142      86.893
  N     -899.480    -863.168      87.998
  C     -898.460    -864.342      86.096
  C     -897.690    -864.234      85.025
  O     -897.530    -867.075      78.557
  O     -895.090    -867.506      79.222
  H     -894.960    -867.135      78.327
  H     -893.280    -861.606      83.574
  H     -898.920    -865.284      86.395
  H     -897.490    -865.073      84.366
  H     -896.590    -861.908      82.991
  H     -894.550    -862.748      84.889
  H     -894.540    -864.963      83.948
  H     -894.950    -863.578      81.228
  H     -899.630    -862.311      88.528
  H     -894.400    -865.882      80.863
  H     -900.000    -863.983      88.289
  H     -895.430    -866.454      82.208
  P     -892.210    -865.595      82.898
  C     -891.230    -865.326      80.498
  O     -892.050    -866.086      81.362
  O     -893.290    -866.573      83.499
  O     -890.950    -865.625      83.695
  H     -892.890    -867.218      84.085
  H     -890.840    -866.010      79.713
  H     -890.380    -864.888      81.010
  H     -891.810    -864.542      80.001
  H     -898.308    -869.375      81.899
  H     -898.927    -868.811      80.365
  H     -898.695    -867.685      81.680

 3  4  5  6  7  8  9  10  11  12  13  24  27  28  29  30  32 0
 6-311+G(2d,p)
 ****
 34  35 0
 6-311+G(2d,p)
 ****
 1  2  14  15  16  17  18  19  20  21  22  23  25  26 0
 3-21G
 ****
 31  33  36  37  38  39  40  41  42  43  44  45  46 0
 3-21G
 ****


