%nproc=1
%NoSave
%Mem=1900MB
#P OB98/GEN NMR

erre ene a

0 1
  C      469.211     259.301     577.346
  O      468.778     259.792     578.600
  H      469.897     258.470     577.511
  H      469.730     260.088     576.791
  H      468.349     258.946     576.769
  P      467.840     261.095     578.579
  C      469.713     262.255     579.976
  O      468.878     262.304     578.835
  C      469.498     263.501     580.846
  O      469.663     264.694     580.059
  C      468.098     263.606     581.452
  O      467.912     262.769     582.576
  C      468.098     265.072     581.835
  O      468.913     265.274     583.009
  C      468.757     265.701     580.581
  N      467.770     266.101     579.574
  C      467.841     267.412     579.112
  O      468.677     268.205     579.561
  N      466.921     267.848     578.182
  C      466.023     267.017     577.718
  N      465.139     267.492     576.807
  C      465.934     265.614     578.167
  C      466.826     265.227     579.083
  O      467.055     261.014     579.976
  O      466.969     261.255     577.386
  H      469.044     266.235     583.087
  H      466.559     261.850     580.130
  H      465.164     264.961     577.765
  H      466.824     264.209     579.441
  H      469.350     266.581     580.857
  H      467.108     265.462     582.070
  H      467.319     263.433     580.704
  H      470.279     263.509     581.620
  H      465.199     268.481     576.565
  H      470.761     262.216     579.634
  H      464.332     266.976     576.515
  H      469.499     261.352     580.579
  P      466.420     262.268     582.888
  C      465.619     264.334     584.272
  O      465.513     263.578     583.059
  O      466.520     261.687     584.378
  O      465.888     261.253     581.928
  H      465.923     260.932     584.497
  H      464.954     265.171     584.230
  H      466.624     264.682     584.388
  H      465.358     263.713     585.103

 6  7  8  9  10  11  12  13  14  15  16  26  30  31  32  33  35 0
 6-311+G(2d,p)
 ****
 37  38 0
 6-311+G(2d,p)
 ****
 1  2  3  4  5  17  18  19  20  21  22  23  24  25 0
 3-21G
 ****
 27  28  29  34  36  39  40  41  42  43  44  45  46 0
 3-21G
 ****


