%nproc=1
%NoSave
%Mem=1900MB
#P OB98/GEN NMR

erre ene a

0 1
  C     -132.079     707.476    -549.631
  O     -132.140     707.949    -550.952
  H     -131.229     706.791    -549.532
  H     -132.999     706.925    -549.393
  H     -131.959     708.301    -548.920
  P     -133.047     709.243    -551.234
  C     -130.989     710.534    -552.161
  O     -132.055     710.508    -551.216
  C     -129.987     711.635    -551.810
  O     -129.354     711.281    -550.539
  C     -128.867     711.838    -552.856
  O     -128.561     713.226    -552.926
  C     -127.692     711.112    -552.215
  O     -126.442     711.596    -552.726
  C     -127.932     711.417    -550.744
  N     -123.242     709.967    -549.632
  C     -123.702     711.029    -550.394
  N     -122.771     711.790    -551.012
  N     -124.963     711.306    -550.543
  C     -125.786     710.469    -549.868
  C     -125.474     709.387    -549.096
  C     -124.065     709.069    -548.934
  O     -123.601     708.139    -548.308
  N     -126.596     708.769    -548.619
  C     -127.611     709.467    -549.126
  N     -127.170     710.520    -549.901
  O     -133.876     709.391    -549.867
  O     -133.954     709.154    -552.421
  H     -126.436     711.457    -553.693
  H     -134.747     708.951    -549.959
  H     -122.253     709.771    -549.566
  H     -128.665     709.247    -549.001
  H     -127.633     712.437    -550.468
  H     -127.760     710.037    -552.424
  H     -121.778     711.652    -550.912
  H     -129.136     711.458    -553.851
  H     -123.088     712.600    -551.532
  H     -130.535     712.566    -551.637
  H     -131.406     710.731    -553.163
  H     -130.499     709.555    -552.180
  P     -129.586     714.192    -553.723
  C     -130.569     715.168    -551.498
  O     -130.820     714.522    -552.743
  O     -130.217     713.215    -554.820
  O     -128.936     715.381    -554.352
  H     -130.417     713.707    -555.622
  H     -131.493     715.310    -550.977
  H     -130.110     716.118    -551.675
  H     -129.916     714.561    -550.907

 6  7  8  9  10  11  12  13  14  15  26  29  33  34 0
 6-311+G(2d,p)
 ****
 36  38  39  40  41 0
 6-311+G(2d,p)
 ****
 1  2  3  4  5  16  17  18  19  20  21  22  23  24  25 0
 3-21G
 ****
 27  28  30  31  32  35  37  42  43  44  45  46  47 0
 3-21G
 ****
 48  49 0
 3-21G
 ****


