%nproc=1
%NoSave
%Mem=1900MB
#P OB98/GEN NMR

erre ene a

0 1
  C       88.346    -494.122    -346.990
  O       87.327    -494.548    -346.098
  P       86.197    -493.529    -345.584
  C       83.912    -493.966    -344.458
  O       84.885    -494.428    -345.389
  C       82.829    -495.030    -344.276
  O       82.067    -495.152    -345.496
  C       83.356    -496.433    -343.969
  O       83.772    -496.534    -342.615
  C       82.152    -497.280    -344.351
  O       81.173    -497.264    -343.300
  C       81.602    -496.529    -345.585
  N       82.005    -497.136    -346.846
  C       81.102    -497.018    -347.908
  O       80.035    -496.415    -347.775
  N       81.448    -497.557    -349.127
  C       82.581    -498.174    -349.264
  N       82.902    -498.629    -350.507
  C       83.533    -498.374    -348.154
  C       83.191    -497.829    -346.989
  O       86.006    -492.321    -346.443
  O       86.613    -493.197    -344.079
  H       80.446    -497.854    -343.582
  H       87.233    -492.427    -343.996
  H       84.457    -498.909    -348.319
  H       83.843    -497.909    -346.131
  H       80.506    -496.481    -345.546
  H       82.405    -498.327    -344.560
  H       84.201    -496.672    -344.625
  H       82.146    -494.694    -343.482
  H       82.301    -498.316    -351.274
  H       83.456    -493.051    -344.851
  H       83.852    -498.854    -350.761
  H       84.402    -493.739    -343.507
  P       84.871    -497.644    -342.265
  C       86.564    -497.987    -340.333
  O       85.577    -497.158    -340.904
  O       85.989    -497.425    -343.395
  O       84.348    -499.042    -342.251
  H       85.901    -498.100    -344.095
  H       87.099    -497.416    -339.569
  H       87.285    -498.316    -341.091
  H       86.100    -498.857    -339.856
  H       88.995    -494.944    -347.209
  H       88.910    -493.334    -346.537
  H       87.901    -493.767    -347.896

 3  4  5  6  7  8  9  10  11  12  13  23  27  28  29  30  32 0
 6-311+G(2d,p)
 ****
 34  35 0
 6-311+G(2d,p)
 ****
 1  2  14  15  16  17  18  19  20  21  22  24  25  26 0
 3-21G
 ****
 31  33  36  37  38  39  40  41  42  43  44  45  46 0
 3-21G
 ****


