%nproc=1
%NoSave
%Mem=1900MB
#P OB98/GEN NMR

erre ene a

0 1
  C       27.258     -84.739       8.451
  O       27.856     -85.016       7.200
  H       27.867     -83.998       8.976
  H       27.208     -85.648       9.057
  H       26.253     -84.335       8.307
  P       27.162     -86.166       6.318
  C       28.286     -88.292       7.333
  O       27.152     -87.437       7.301
  C       27.925     -89.600       8.028
  O       27.649     -89.375       9.427
  C       26.676     -90.276       7.471
  O       26.919     -90.977       6.262
  C       26.344     -91.218       8.614
  O       27.245     -92.342       8.590
  C       26.617     -90.313       9.837
  N       25.426     -89.598      10.300
  C       24.724     -90.172      11.367
  O       25.102     -91.231      11.867
  N       23.586     -89.549      11.822
  C       23.189     -88.445      11.269
  N       22.049     -87.878      11.751
  C       23.907     -87.797      10.156
  C       25.002     -88.420       9.727
  O       28.292     -86.558       5.254
  O       25.841     -85.823       5.716
  H       27.168     -92.785       9.455
  H       28.006     -87.351       4.739
  H       23.531     -86.881       9.721
  H       25.580     -88.003       8.909
  H       27.022     -90.897      10.673
  H       25.330     -91.619       8.560
  H       25.851     -89.565       7.353
  H       28.798     -90.266       7.970
  H       21.545     -88.377      12.472
  H       29.088     -87.782       7.878
  H       21.569     -87.126      11.272
  H       28.626     -88.503       6.314
  P       25.792     -90.906       5.121
  C       25.019     -93.261       5.895
  O       24.637     -91.942       5.535
  O       26.494     -91.619       3.874
  O       25.320     -89.525       4.785
  H       26.267     -91.174       3.037
  H       24.147     -93.829       6.144
  H       25.674     -93.224       6.740
  H       25.524     -93.723       5.072

 6  7  8  9  10  11  12  13  14  15  16  26  30  31  32  33  35 0
 6-311+G(2d,p)
 ****
 37  38 0
 6-311+G(2d,p)
 ****
 1  2  3  4  5  17  18  19  20  21  22  23  24  25 0
 3-21G
 ****
 27  28  29  34  36  39  40  41  42  43  44  45  46 0
 3-21G
 ****


