%nproc=1
%NoSave
%Mem=1900MB
#P OB98/GEN NMR

erre ene a

0 1
  C       70.139      53.232     -23.723
  O       69.739      52.704     -22.470
  P       68.913      51.330     -22.362
  C       69.539      48.881     -22.910
  O       69.777      50.252     -23.176
  C       69.864      48.035     -24.143
  O       68.863      48.296     -25.161
  C       71.239      48.320     -24.760
  O       71.742      47.080     -25.269
  C       70.909      49.269     -25.897
  O       71.913      49.291     -26.900
  C       69.557      48.711     -26.355
  N       68.774      49.686     -27.105
  C       68.566      49.445     -28.464
  O       69.050      48.456     -29.012
  N       67.809      50.339     -29.181
  C       67.372      51.420     -28.613
  N       66.576      52.242     -29.349
  C       67.661      51.765     -27.208
  C       68.339      50.853     -26.518
  O       67.485      51.424     -22.774
  O       69.130      50.857     -20.853
  H       71.954      48.407     -27.312
  H       68.485      51.268     -20.224
  H       67.298      52.694     -26.787
  H       68.575      51.010     -25.475
  H       69.706      47.811     -26.962
  H       70.803      50.286     -25.503
  H       71.951      48.730     -24.038
  H       69.782      46.976     -23.867
  H       66.260      51.887     -30.246
  H       68.480      48.755     -22.666
  H       65.952      52.903     -28.901
  H       70.132      48.563     -22.047
  P       73.334      46.870     -25.326
  C       75.222      46.638     -23.563
  O       73.915      47.086     -23.850
  O       73.809      48.212     -26.072
  O       73.820      45.674     -26.077
  H       74.659      48.041     -26.519
  H       75.451      46.874     -22.520
  H       75.951      47.144     -24.202
  H       75.296      45.556     -23.702
  H       70.673      54.146     -23.571
  H       69.274      53.421     -24.323
  H       70.772      52.528     -24.221

 3  4  5  6  7  8  9  10  11  12  13  23  27  28  29  30  32 0
 6-311+G(2d,p)
 ****
 34  35 0
 6-311+G(2d,p)
 ****
 1  2  14  15  16  17  18  19  20  21  22  24  25  26 0
 3-21G
 ****
 31  33  36  37  38  39  40  41  42  43  44  45  46 0
 3-21G
 ****


