%nproc=1
%NoSave
%Mem=1900MB
#P OB98/GEN NMR

erre ene a

0 1
  C      153.254      30.336      57.495
  O      153.162      30.994      56.252
  H      152.283      29.882      57.719
  H      153.497      31.043      58.291
  H      154.008      29.545      57.454
  P      154.389      31.911      55.761
  C      153.248      34.033      56.640
  O      154.379      33.180      56.759
  C      153.659      35.508      56.610
  O      154.315      35.856      57.859
  C      154.620      35.859      55.468
  O      154.174      37.057      54.824
  C      155.946      36.104      56.175
  O      156.812      36.949      55.422
  C      155.464      36.658      57.522
  N      156.488      36.599      58.561
  C      157.161      37.793      58.843
  O      156.907      38.814      58.200
  N      158.131      37.796      59.812
  C      158.441      36.689      60.413
  N      159.419      36.756      61.359
  C      157.791      35.397      60.118
  C      156.825      35.426      59.196
  O      154.373      32.253      54.309
  O      155.698      31.108      56.217
  H      156.757      36.683      54.476
  H      156.475      31.424      55.693
  H      158.091      34.500      60.638
  H      156.287      34.525      58.919
  H      155.136      37.701      57.420
  H      156.459      35.145      56.330
  H      154.704      35.077      54.720
  H      152.747      36.118      56.566
  H      159.840      37.661      61.533
  H      152.574      33.842      57.483
  H      159.748      35.959      61.886
  H      152.731      33.791      55.703
  P      153.381      36.860      53.441
  C      155.446      37.547      52.033
  O      154.460      36.556      52.291
  O      152.864      38.337      53.104
  O      152.253      35.884      53.529
  H      151.925      38.428      53.349
  H      156.092      37.212      51.249
  H      156.020      37.718      52.919
  H      154.968      38.457      51.737

 6  7  8  9  10  11  12  13  14  15  16  26  30  31  32  33  35 0
 6-311+G(2d,p)
 ****
 37  38 0
 6-311+G(2d,p)
 ****
 1  2  3  4  5  17  18  19  20  21  22  23  24  25 0
 3-21G
 ****
 27  28  29  34  36  39  40  41  42  43  44  45  46 0
 3-21G
 ****


