%nproc=1
%NoSave
%Mem=1900MB
#P OB98/GEN NMR

erre ene a

0 1
  C       65.657     221.006    -560.794
  O       64.424     220.499    -560.329
  H       66.146     220.243    -561.405
  H       66.300     221.235    -559.940
  H       65.510     221.904    -561.400
  P       63.365     221.556    -559.754
  C       61.484     221.119    -561.490
  O       62.462     222.024    -560.997
  C       60.386     221.875    -562.237
  O       59.704     222.757    -561.295
  C       60.898     222.741    -563.401
  O       59.940     222.700    -564.465
  C       60.890     224.138    -562.808
  O       60.813     225.150    -563.805
  C       59.660     224.059    -561.910
  N       58.200     228.803    -561.185
  C       57.905     227.919    -562.203
  N       57.153     228.385    -563.221
  N       58.318     226.680    -562.224
  C       59.047     226.338    -561.136
  C       59.412     227.117    -560.064
  C       58.964     228.493    -560.061
  O       59.210     229.330    -559.199
  N       60.208     226.415    -559.194
  C       60.338     225.221    -559.749
  N       59.653     225.127    -560.928
  O       64.278     222.836    -559.449
  O       62.609     221.112    -558.548
  H       60.792     226.020    -563.358
  H       64.554     222.830    -558.513
  H       57.873     229.753    -561.225
  H       60.927     224.408    -559.352
  H       58.722     224.139    -562.475
  H       61.800     224.301    -562.218
  H       56.770     229.318    -563.262
  H       61.881     222.442    -563.777
  H       56.894     227.736    -563.956
  H       59.642     221.152    -562.592
  H       61.037     220.581    -560.647
  H       61.966     220.394    -562.153
  P       60.353     221.960    -565.825
  C       58.943     219.882    -565.147
  O       60.187     220.378    -565.620
  O       61.942     222.158    -565.875
  O       59.695     222.520    -567.042
  H       62.233     222.258    -566.800
  H       58.992     218.816    -565.064
  H       58.168     220.151    -565.833
  H       58.732     220.305    -564.187

 6  7  8  9  10  11  12  13  14  15  26  29  33  34 0
 6-311+G(2d,p)
 ****
 36  38  39  40  41 0
 6-311+G(2d,p)
 ****
 1  2  3  4  5  16  17  18  19  20  21  22  23  24  25 0
 3-21G
 ****
 27  28  30  31  32  35  37  42  43  44  45  46  47 0
 3-21G
 ****
 48  49 0
 3-21G
 ****


