%nproc=1
%NoSave
%Mem=1900MB
#P OB98/GEN NMR

erre ene a

0 1
  C       -8.303     -19.207     191.670
  O       -8.469     -20.084     190.564
  P       -7.615     -19.872     189.221
  C       -5.147     -20.227     188.591
  O       -6.070     -19.959     189.642
  C       -3.971     -19.255     188.642
  O       -4.443     -17.931     188.292
  C       -3.321     -19.160     190.020
  O       -1.910     -18.978     189.857
  C       -3.894     -17.884     190.620
  O       -3.003     -17.326     191.601
  C       -4.105     -17.032     189.367
  N       -5.418     -12.386     191.123
  C       -4.235     -13.035     191.103
  N       -3.963     -14.276     190.640
  C       -5.065     -14.841     190.115
  C       -6.340     -14.300     190.066
  C       -6.505     -13.009     190.603
  N       -7.709     -12.345     190.616
  N       -7.228     -15.187     189.482
  C       -6.490     -16.231     189.167
  N       -5.173     -16.066     189.523
  O       -7.976     -18.662     188.427
  O       -7.841     -21.215     188.386
  H       -3.501     -16.634     192.080
  H       -7.917     -21.017     187.433
  H       -3.387     -12.487     191.504
  H       -6.860     -17.131     188.696
  H       -3.190     -16.492     189.086
  H       -4.845     -18.110     191.119
  H       -3.520     -20.038     190.646
  H       -3.238     -19.553     187.886
  H       -5.671     -20.108     187.636
  H       -7.708     -11.377     190.912
  H       -8.475     -12.734     190.076
  H       -4.797     -21.261     188.669
  P       -0.994     -19.410     191.113
  C       -0.292     -21.752     192.013
  O       -1.185     -20.996     191.228
  O       -1.292     -18.595     192.328
  O        0.474     -19.208     190.507
  H        0.475     -19.277     189.530
  H       -0.559     -22.808     191.934
  H       -0.361     -21.450     193.063
  H        0.737     -21.619     191.658
  H       -8.953     -19.508     192.465
  H       -8.543     -18.208     191.372
  H       -7.288     -19.245     192.006

 3  4  5  6  7  8  9  10  11  12  22  25  29  30  31  32 0
 6-311+G(2d,p)
 ****
 33  36  37 0
 6-311+G(2d,p)
 ****
 1  2  13  14  15  16  17  18  19  20  21  23  24  26 0
 3-21G
 ****
 27  28  34  35  38  39  40  41  42  43  44  45  46  47  48 0
 3-21G
 ****


