%nproc=1
%NoSave
%Mem=1900MB
#P OB98/GEN NMR

erre ene a

0 1
  C      -19.954     -19.212      -8.477
  O      -20.907     -20.102      -9.015
  H      -19.798     -18.394      -9.186
  H      -19.003     -19.728      -8.327
  H      -20.306     -18.795      -7.530
  P      -21.411     -21.301      -8.075
  C      -20.287     -23.336      -6.921
  O      -20.148     -22.265      -7.842
  C      -19.650     -24.608      -7.482
  O      -20.509     -25.140      -8.524
  C      -18.262     -24.384      -8.086
  O      -17.440     -25.512      -7.773
  C      -18.521     -24.348      -9.581
  O      -17.374     -24.712     -10.348
  C      -19.713     -25.305      -9.712
  N      -20.483     -25.038     -10.923
  C      -19.895     -25.406     -12.136
  O      -18.775     -25.920     -12.151
  N      -20.557     -25.133     -13.305
  C      -21.671     -24.471     -13.271
  N      -22.266     -24.203     -14.466
  C      -22.296     -24.002     -12.019
  C      -21.659     -24.325     -10.894
  O      -22.353     -22.159      -9.041
  O      -22.109     -20.882      -6.824
  H      -17.669     -24.922     -11.261
  H      -23.079     -22.582      -8.544
  H      -23.212     -23.431     -12.044
  H      -22.038     -24.018      -9.927
  H      -19.368     -26.348      -9.738
  H      -18.816     -23.334      -9.877
  H      -17.778     -23.471      -7.730
  H      -19.613     -25.359      -6.684
  H      -21.797     -24.525     -15.304
  H      -21.352     -23.520      -6.747
  H      -23.109     -23.658     -14.562
  H      -19.817     -23.062      -5.971
  P      -16.290     -25.285      -6.680
  C      -13.918     -24.229      -6.615
  O      -15.030     -24.617      -7.411
  O      -15.796     -26.769      -6.348
  O      -16.762     -24.574      -5.454
  H      -16.094     -27.030      -5.458
  H      -13.163     -23.802      -7.241
  H      -13.522     -25.087      -6.113
  H      -14.232     -23.506      -5.892

 6  7  8  9  10  11  12  13  14  15  16  26  30  31  32  33  35 0
 6-311+G(2d,p)
 ****
 37  38 0
 6-311+G(2d,p)
 ****
 1  2  3  4  5  17  18  19  20  21  22  23  24  25 0
 3-21G
 ****
 27  28  29  34  36  39  40  41  42  43  44  45  46 0
 3-21G
 ****


