%nproc=1
%NoSave
%Mem=1900MB
#P OB98/GEN NMR

erre ene a

0 1
  C      226.135    -291.758     -51.911
  O      224.886    -291.370     -51.373
  P      224.712    -289.922     -50.707
  C      225.720    -288.757     -48.609
  O      225.824    -289.795     -49.562
  C      226.751    -288.931     -47.491
  O      228.065    -288.685     -48.048
  C      226.607    -287.954     -46.327
  O      227.319    -288.471     -45.201
  C      227.314    -286.731     -46.860
  O      227.712    -285.839     -45.818
  C      228.479    -287.343     -47.687
  N      228.767    -286.550     -48.892
  C      229.322    -285.294     -48.696
  O      229.645    -284.868     -47.586
  N      229.420    -284.502     -49.808
  C      228.976    -284.830     -51.054
  O      228.785    -284.022     -51.948
  C      228.619    -286.250     -51.242
  C      228.508    -287.026     -50.164
  O      223.340    -290.067     -49.898
  O      224.667    -288.792     -51.678
  H      228.038    -285.019     -46.263
  H      222.596    -289.718     -50.422
  H      229.688    -283.540     -49.640
  H      228.403    -286.594     -52.248
  H      228.195    -288.066     -50.265
  H      229.396    -287.409     -47.091
  H      226.635    -286.179     -47.520
  H      225.566    -287.737     -46.049
  H      226.727    -289.963     -47.129
  H      224.702    -288.746     -48.203
  H      225.872    -287.785     -49.092
  P      226.539    -288.574     -43.801
  C      226.197    -287.005     -41.800
  O      226.605    -287.108     -43.145
  O      226.941    -289.698     -42.912
  O      225.004    -288.691     -44.250
  H      224.471    -289.049     -43.515
  H      226.740    -286.177     -41.327
  H      226.401    -287.930     -41.240
  H      225.125    -286.791     -41.757
  H      226.060    -292.749     -52.309
  H      226.877    -291.738     -51.140
  H      226.413    -291.081     -52.691

 3  4  5  6  7  8  9  10  11  12  13  23  28  29  30  31  32 0
 6-311+G(2d,p)
 ****
 33  34 0
 6-311+G(2d,p)
 ****
 1  2  14  15  16  17  18  19  20  21  22  24  25  26  27 0
 3-21G
 ****
 35  36  37  38  39  40  41  42  43  44  45 0
 3-21G
 ****


