%nproc=1
%NoSave
%Mem=1900MB
#P OB98/GEN NMR

erre ene a

0 1
  C      194.780     -89.454      39.126
  O      195.769     -89.470      38.115
  H      194.155     -88.566      38.991
  H      195.242     -89.407      40.116
  H      194.146     -90.342      39.053
  P      196.867     -90.635      38.140
  C      198.197     -89.515      40.055
  O      198.212     -89.975      38.708
  C      199.613     -89.194      40.529
  O      199.592     -88.727      41.893
  C      200.560     -90.387      40.513
  O      200.964     -90.686      39.193
  C      201.659     -89.884      41.435
  O      202.528     -88.970      40.748
  C      200.832     -89.141      42.514
  N      200.572     -89.948      43.703
  C      201.694     -90.312      44.456
  O      202.820     -89.969      44.098
  N      201.507     -91.072      45.585
  C      200.309     -91.401      45.954
  N      200.190     -92.151      47.083
  C      199.097     -91.008      45.208
  C      199.301     -90.301      44.099
  O      197.045     -91.403      36.867
  O      196.395     -91.584      39.340
  H      201.952     -88.261      40.394
  H      195.843     -92.314      39.002
  H      198.117     -91.297      45.558
  H      198.463     -89.971      43.492
  H      201.348     -88.227      42.831
  H      202.283     -90.691      41.818
  H      200.086     -91.255      40.985
  H      200.001     -88.376      39.907
  H      201.049     -92.378      47.574
  H      197.769     -90.317      40.665
  H      199.311     -92.323      47.551
  H      197.557     -88.629      40.153
  P      200.762     -92.149      38.563
  C      203.036     -93.095      39.304
  O      202.235     -92.677      38.208
  O      199.779     -92.227      37.445
  O      200.368     -93.050      39.824
  H      199.422     -92.899      40.075
  H      203.989     -93.423      38.945
  H      202.550     -93.900      39.814
  H      203.172     -92.276      39.979

 6  7  8  9  10  11  12  13  14  15  16  26  30  31  32  33  35 0
 6-311+G(2d,p)
 ****
 37  38 0
 6-311+G(2d,p)
 ****
 1  2  3  4  5  17  18  19  20  21  22  23  24  25 0
 3-21G
 ****
 27  28  29  34  36  39  40  41  42  43  44  45  46 0
 3-21G
 ****


