%nproc=1
%NoSave
%Mem=1900MB
#P OB98/GEN NMR

erre ene a

0 1
  C       -5.266    -738.369    -116.721
  O       -5.943    -739.197    -117.672
  P       -7.419    -738.891    -118.216
  C       -8.910    -740.151    -116.528
  O       -8.452    -738.886    -116.991
  C      -10.107    -740.022    -115.583
  O      -11.229    -739.396    -116.285
  C      -10.617    -741.358    -115.011
  O      -10.995    -741.103    -113.652
  C      -11.831    -741.636    -115.885
  O      -12.733    -742.578    -115.333
  C      -12.389    -740.210    -116.015
  N      -13.400    -740.031    -117.050
  C      -14.722    -739.801    -116.639
  O      -15.035    -739.815    -115.452
  N      -15.679    -739.588    -117.604
  C      -15.356    -739.605    -118.856
  N      -16.354    -739.374    -119.757
  C      -13.980    -739.857    -119.338
  C      -13.069    -740.059    -118.390
  O       -7.848    -739.783    -119.341
  O       -7.391    -737.361    -118.699
  H       -7.961    -737.260    -119.487
  H      -13.084    -742.210    -114.499
  H      -13.754    -739.855    -120.392
  H      -12.031    -740.227    -118.660
  H      -12.791    -739.891    -115.047
  H      -11.482    -742.034    -116.843
  H       -9.867    -742.149    -115.024
  H       -9.831    -739.339    -114.771
  H      -17.278    -739.190    -119.393
  H       -8.084    -740.635    -115.984
  H      -16.213    -739.352    -120.759
  H       -9.159    -740.778    -117.391
  P       -9.914    -741.263    -112.486
  C      -10.848    -743.667    -112.097
  O       -9.715    -742.841    -112.224
  O      -10.756    -740.828    -111.188
  O       -8.685    -740.427    -112.604
  H      -10.146    -740.503    -110.500
  H      -10.672    -744.580    -112.676
  H      -11.763    -743.190    -112.461
  H      -10.973    -743.943    -111.049
  H       -4.299    -738.779    -116.516
  H       -5.835    -738.327    -115.816
  H       -5.158    -737.382    -117.120

 3  4  5  6  7  8  9  10  11  12  13  24  27  28  29  30  32 0
 6-311+G(2d,p)
 ****
 34  35 0
 6-311+G(2d,p)
 ****
 1  2  14  15  16  17  18  19  20  21  22  23  25  26 0
 3-21G
 ****
 31  33  36  37  38  39  40  41  42  43  44  45  46 0
 3-21G
 ****


