%nproc=1
%NoSave
%Mem=1900MB
#P OB98/GEN NMR

erre ene a

0 1
  C       95.347    -784.891    -682.291
  O       96.186    -785.325    -683.344
  H       94.678    -784.110    -682.670
  H       95.938    -784.462    -681.471
  H       94.746    -785.722    -681.921
  P       97.369    -786.351    -683.009
  C       95.830    -788.191    -683.969
  O       97.129    -787.612    -683.965
  C       95.177    -788.005    -685.337
  O       94.851    -786.615    -685.551
  C       96.083    -788.404    -686.503
  O       96.146    -789.800    -686.628
  C       95.409    -787.668    -687.650
  O       94.260    -788.383    -688.118
  C       94.986    -786.339    -686.957
  N       95.945    -785.258    -687.207
  C       96.000    -784.776    -688.509
  O       95.274    -785.239    -689.388
  N       96.897    -783.765    -688.789
  C       97.655    -783.277    -687.865
  N       98.542    -782.298    -688.203
  C       97.619    -783.764    -686.459
  C       96.756    -784.752    -686.202
  O       97.566    -786.689    -681.556
  O       98.668    -785.649    -683.642
  H       93.749    -787.733    -688.637
  H       99.091    -785.064    -682.990
  H       98.271    -783.335    -685.709
  H       96.652    -785.157    -685.202
  H       93.999    -786.021    -687.330
  H       96.095    -787.536    -688.482
  H       97.083    -787.976    -686.362
  H       94.236    -788.581    -685.364
  H       98.534    -782.015    -689.174
  H       95.242    -787.684    -683.191
  H       99.092    -781.806    -687.539
  H       95.874    -789.266    -683.726
  P       97.377    -790.497    -687.404
  C       98.133    -791.646    -685.216
  O       97.711    -791.825    -686.582
  O       98.522    -789.594    -687.695
  O       96.663    -791.082    -688.743
  H       96.461    -790.338    -689.382
  H       98.326    -792.601    -684.774
  H       97.361    -791.148    -684.667
  H       99.025    -791.056    -685.193

 6  7  8  9  10  11  12  13  14  15  16  26  30  31  32  33  35 0
 6-311+G(2d,p)
 ****
 37  38 0
 6-311+G(2d,p)
 ****
 1  2  3  4  5  17  18  19  20  21  22  23  24  25 0
 3-21G
 ****
 27  28  29  34  36  39  40  41  42  43  44  45  46 0
 3-21G
 ****


