%nproc=1
%NoSave
%Mem=1900MB
#P OB98/GEN NMR

erre ene a

0 1
  C      -70.710     323.709     133.346
  O      -71.185     322.452     133.794
  H      -69.617     323.707     133.409
  H      -71.095     324.504     133.986
  H      -71.001     323.888     132.309
  P      -72.749     322.128     133.672
  C      -72.880     322.085     131.092
  O      -72.966     321.327     132.295
  C      -73.292     321.230     129.886
  O      -72.330     320.155     129.725
  C      -74.683     320.601     130.021
  O      -75.324     320.597     128.743
  C      -74.383     319.176     130.451
  O      -75.420     318.268     130.083
  C      -73.056     318.910     129.743
  N      -72.717     313.940     130.631
  C      -73.577     314.642     129.812
  N      -74.503     313.918     129.144
  N      -73.543     315.940     129.666
  C      -72.550     316.536     130.374
  C      -71.630     315.953     131.218
  C      -71.696     314.514     131.391
  O      -70.968     313.840     132.113
  N      -70.795     316.891     131.776
  C      -71.210     318.041     131.267
  N      -72.279     317.878     130.426
  O      -73.656     323.307     133.858
  O      -73.009     321.009     134.786
  H      -75.602     318.415     129.128
  H      -73.471     321.384     135.557
  H      -72.793     312.941     130.717
  H      -70.779     319.011     131.484
  H      -73.191     318.570     128.708
  H      -74.261     319.134     131.542
  H      -74.576     312.912     129.192
  H      -75.306     321.125     130.744
  H      -75.134     314.404     128.515
  H      -73.229     321.854     128.982
  H      -71.841     322.418     130.970
  H      -73.528     322.963     131.170
  P      -76.656     321.467     128.534
  C      -75.459     323.737     128.385
  O      -76.285     322.795     127.708
  O      -77.469     321.699     129.767
  O      -77.480     320.605     127.458
  H      -78.437     320.693     127.648
  H      -75.277     324.576     127.746
  H      -74.528     323.276     128.642
  H      -75.951     324.067     129.276

 6  7  8  9  10  11  12  13  14  15  26  29  33  34 0
 6-311+G(2d,p)
 ****
 36  38  39  40  41 0
 6-311+G(2d,p)
 ****
 1  2  3  4  5  16  17  18  19  20  21  22  23  24  25 0
 3-21G
 ****
 27  28  30  31  32  35  37  42  43  44  45  46  47 0
 3-21G
 ****
 48  49 0
 3-21G
 ****


