%nproc=1
%NoSave
%Mem=1900MB
#P OB98/GEN NMR

erre ene a

0 1
  C       13.815    -244.863      19.307
  O       14.840    -244.603      20.246
  H       13.265    -245.751      19.631
  H       14.243    -245.062      18.319
  H       13.118    -244.023      19.252
  P       15.802    -243.344      19.995
  C       17.609    -242.817      18.212
  O       16.629    -243.739      18.674
  C       18.753    -243.562      17.527
  O       18.278    -244.348      16.413
  C       19.833    -242.664      16.930
  O       20.679    -242.070      17.896
  C       20.562    -243.681      16.065
  O       21.382    -244.522      16.897
  C       19.377    -244.468      15.468
  N       18.972    -243.966      14.153
  C       19.391    -244.713      13.043
  O       20.069    -245.728      13.189
  N       19.058    -244.272      11.780
  C       18.389    -243.168      11.642
  N       18.093    -242.773      10.372
  C       17.944    -242.341      12.782
  C       18.265    -242.796      13.993
  O       16.627    -242.904      21.165
  O       14.831    -242.200      19.436
  H       22.083    -243.959      17.267
  H       15.378    -241.393      19.273
  H       17.411    -241.416      12.609
  H       17.978    -242.240      14.878
  H       19.616    -245.536      15.381
  H       21.216    -243.221      15.325
  H       19.387    -241.905      16.273
  H       19.171    -244.264      18.264
  H       18.412    -243.358       9.612
  H       17.969    -242.243      19.070
  H       17.640    -241.891      10.165
  H       17.158    -242.131      17.487
  P       21.417    -240.702      17.470
  C       22.862    -240.012      15.408
  O       22.313    -241.060      16.184
  O       22.488    -240.492      18.640
  O       20.516    -239.523      17.287
  H       22.152    -239.850      19.300
  H       23.425    -240.426      14.598
  H       23.504    -239.414      16.020
  H       22.072    -239.404      15.019

 6  7  8  9  10  11  12  13  14  15  16  26  30  31  32  33  35 0
 6-311+G(2d,p)
 ****
 37  38 0
 6-311+G(2d,p)
 ****
 1  2  3  4  5  17  18  19  20  21  22  23  24  25 0
 3-21G
 ****
 27  28  29  34  36  39  40  41  42  43  44  45  46 0
 3-21G
 ****


