%nproc=1
%NoSave
%Mem=1900MB
#P OB98/GEN NMR

erre ene a

0 1
  C     -229.329    -593.894      -8.816
  O     -230.662    -593.759      -9.273
  P     -231.088    -594.384     -10.683
  C     -231.781    -596.665      -9.731
  O     -230.891    -595.974     -10.596
  C     -232.417    -597.852     -10.464
  O     -233.175    -597.390     -11.597
  C     -231.408    -598.842     -11.026
  O     -230.884    -599.666     -10.001
  C     -232.259    -599.574     -12.062
  O     -233.055    -600.589     -11.434
  C     -233.153    -598.438     -12.589
  N     -231.978    -599.629     -17.406
  C     -232.252    -600.398     -16.331
  N     -232.514    -600.004     -15.064
  C     -232.460    -598.667     -14.969
  C     -232.155    -597.756     -15.967
  C     -231.933    -598.286     -17.251
  N     -231.721    -597.508     -18.369
  N     -232.167    -596.468     -15.471
  C     -232.453    -596.605     -14.186
  N     -232.703    -597.909     -13.856
  O     -230.476    -593.733     -11.881
  O     -232.681    -594.220     -10.705
  H     -233.512    -600.171     -10.677
  H     -232.938    -593.662     -11.459
  H     -232.261    -601.469     -16.506
  H     -232.516    -595.792     -13.468
  H     -234.189    -598.771     -12.726
  H     -231.653    -600.061     -12.835
  H     -230.600    -598.303     -11.540
  H     -233.105    -598.344      -9.774
  H     -232.562    -595.971      -9.408
  H     -231.715    -597.980     -19.259
  H     -231.980    -596.527     -18.334
  H     -231.237    -597.017      -8.853
  P     -229.519    -600.461     -10.240
  C     -228.196    -598.379      -9.553
  O     -228.378    -599.375     -10.540
  O     -229.592    -601.591     -11.219
  O     -229.129    -600.988      -8.781
  H     -228.661    -601.846      -8.855
  H     -228.991    -597.627      -9.630
  H     -227.230    -597.899      -9.717
  H     -228.209    -598.819      -8.547
  H     -229.229    -593.418      -7.863
  H     -228.664    -593.433      -9.516
  H     -229.087    -594.932      -8.724

 3  4  5  6  7  8  9  10  11  12  22  25  29  30  31  32 0
 6-311+G(2d,p)
 ****
 33  36  37 0
 6-311+G(2d,p)
 ****
 1  2  13  14  15  16  17  18  19  20  21  23  24  26 0
 3-21G
 ****
 27  28  34  35  38  39  40  41  42  43  44  45  46  47  48 0
 3-21G
 ****


