%nproc=1
%NoSave
%Mem=1900MB
#P OB98/GEN NMR

erre ene a

0 1
  C     -294.127    -364.650     408.065
  O     -292.914    -365.198     407.591
  H     -294.872    -365.447     408.126
  H     -294.488    -363.887     407.371
  H     -293.999    -364.214     409.060
  P     -291.583    -364.308     407.660
  C     -290.231    -365.840     409.236
  O     -290.363    -365.322     407.921
  C     -291.334    -366.861     409.530
  O     -291.279    -367.913     408.518
  C     -291.212    -367.540     410.907
  O     -292.539    -367.830     411.365
  C     -290.473    -368.817     410.535
  O     -290.515    -369.764     411.571
  C     -291.194    -369.165     409.232
  N     -290.514    -370.183     408.442
  C     -290.656    -371.505     408.844
  O     -291.345    -371.863     409.800
  N     -289.972    -372.430     408.101
  C     -289.173    -372.164     407.027
  O     -288.596    -373.033     406.384
  C     -289.034    -370.744     406.671
  C     -289.698    -369.834     407.383
  O     -291.634    -363.135     408.579
  O     -291.351    -363.857     406.140
  H     -291.704    -362.958     406.009
  H     -291.380    -369.728     412.034
  H     -290.068    -373.398     408.375
  H     -288.385    -370.496     405.842
  H     -289.619    -368.776     407.153
  H     -292.219    -369.490     409.432
  H     -289.420    -368.602     410.352
  H     -290.694    -366.922     411.646
  H     -292.312    -366.368     409.419
  H     -290.299    -365.007     409.942
  H     -289.250    -366.318     409.337
  P     -293.355    -366.867     412.357
  C     -295.699    -367.742     411.720
  O     -294.742    -367.571     412.759
  O     -293.529    -365.476     411.835
  O     -292.524    -366.854     413.726
  H     -292.584    -365.967     414.130
  H     -296.572    -368.219     412.114
  H     -295.280    -368.350     410.945
  H     -295.965    -366.786     411.319

 6  7  8  9  10  11  12  13  14  15  16  27  31  32  33  34  35 0
 6-311+G(2d,p)
 ****
 36  37 0
 6-311+G(2d,p)
 ****
 1  2  3  4  5  17  18  19  20  21  22  23  24  25 0
 3-21G
 ****
 26  28  29  30  38  39  40  41  42  43  44  45 0
 3-21G
 ****


