%nproc=1
%NoSave
%Mem=1900MB
#P OB98/GEN NMR

erre ene a

0 1
  C      145.633    -147.966    -136.259
  O      146.274    -148.935    -137.091
  P      145.871    -150.467    -136.839
  C      145.482    -150.812    -139.379
  O      146.121    -151.277    -138.200
  C      146.446    -150.854    -140.569
  O      147.388    -149.765    -140.548
  C      147.278    -152.127    -140.625
  O      146.511    -153.186    -141.172
  C      148.434    -151.701    -141.521
  O      148.087    -151.818    -142.916
  C      148.630    -150.223    -141.140
  N      153.545    -151.029    -140.197
  C      152.727    -151.579    -141.164
  N      153.308    -152.449    -142.018
  N      151.456    -151.300    -141.286
  C      151.010    -150.412    -140.365
  C      151.729    -149.780    -139.377
  C      153.134    -150.099    -139.253
  O      153.905    -149.623    -138.428
  N      150.945    -148.898    -138.676
  C      149.733    -149.096    -139.158
  N      149.728    -149.957    -140.227
  O      144.276    -150.410    -136.707
  O      146.502    -151.055    -135.620
  H      147.417    -151.146    -143.135
  H      144.014    -150.587    -135.784
  H      154.516    -151.286    -140.144
  H      148.833    -148.626    -138.789
  H      148.813    -149.603    -142.025
  H      149.317    -152.327    -141.371
  H      154.280    -152.708    -141.985
  H      147.650    -152.379    -139.626
  H      152.728    -152.858    -142.742
  H      145.844    -150.762    -141.482
  H      145.120    -149.792    -139.233
  H      144.601    -151.433    -139.572
  P      147.029    -154.683    -140.940
  C      145.119    -155.530    -139.402
  O      145.748    -155.598    -140.668
  O      147.755    -154.600    -139.515
  O      147.964    -155.185    -141.991
  H      148.602    -155.080    -139.552
  H      144.056    -155.755    -139.522
  H      145.225    -154.542    -138.951
  H      145.564    -156.279    -138.741
  H      145.980    -146.988    -136.519
  H      145.866    -148.166    -135.234
  H      144.574    -148.019    -136.401

 3  4  5  6  7  8  9  10  11  12  23  26  30  31 0
 6-311+G(2d,p)
 ****
 33  35  36  37  38 0
 6-311+G(2d,p)
 ****
 1  2  13  14  15  16  17  18  19  20  21  22  24  25 0
 3-21G
 ****
 27  28  29  32  34  39  40  41  42  43  44  45  46  47  48  49 0
 3-21G
 ****


