%nproc=1
%NoSave
%Mem=1900MB
#P OB98/GEN NMR

erre ene a

0 1
  C     -107.985      60.953     744.319
  O     -109.115      61.039     743.438
  P     -110.154      59.828     743.276
  C     -110.695      57.874     741.694
  O     -109.835      58.980     741.938
  C     -109.933      56.545     741.554
  O     -109.220      56.479     740.289
  C     -108.903      56.268     742.659
  O     -108.861      54.850     742.822
  C     -107.612      56.764     742.019
  O     -106.442      56.257     742.645
  C     -107.818      56.298     740.582
  N     -103.195      56.612     738.386
  C     -103.768      55.649     739.145
  N     -105.008      55.618     739.655
  C     -105.716      56.709     739.287
  C     -105.271      57.771     738.510
  C     -103.942      57.698     738.055
  N     -103.330      58.696     737.319
  N     -106.259      58.720     738.366
  C     -107.280      58.249     739.055
  N     -107.003      57.028     739.632
  O     -111.592      60.233     743.399
  O     -109.771      58.818     744.456
  H     -106.523      55.289     742.691
  H     -110.590      58.521     744.907
  H     -103.135      54.793     739.376
  H     -108.230      58.749     739.193
  H     -107.586      55.231     740.473
  H     -107.575      57.862     742.090
  H     -109.130      56.768     743.606
  H     -110.689      55.745     741.526
  H     -111.255      58.063     740.769
  H     -102.352      58.597     737.120
  H     -103.825      59.565     737.175
  H     -111.421      57.797     742.509
  P     -108.857      54.172     744.274
  C     -107.067      53.353     745.919
  O     -107.323      53.843     744.621
  O     -109.787      53.009     744.434
  O     -109.221      55.361     745.285
  H     -109.529      54.988     746.131
  H     -107.120      54.177     746.645
  H     -106.069      52.915     745.944
  H     -107.798      52.582     746.191
  H     -107.428      61.865     744.274
  H     -107.360      60.138     744.019
  H     -108.325      60.792     745.321

 3  4  5  6  7  8  9  10  11  12  22  25  29  30  31  32 0
 6-311+G(2d,p)
 ****
 33  36  37 0
 6-311+G(2d,p)
 ****
 1  2  13  14  15  16  17  18  19  20  21  23  24  26 0
 3-21G
 ****
 27  28  34  35  38  39  40  41  42  43  44  45  46  47  48 0
 3-21G
 ****


