%nproc=1
%NoSave
%Mem=1900MB
#P OB98/GEN NMR

erre ene a

0 1
  C      -44.373     755.431      70.869
  O      -43.129     754.906      71.292
  H      -44.431     756.482      71.153
  H      -45.189     754.888      71.359
  H      -44.472     755.345      69.781
  P      -42.769     753.417      70.829
  C      -42.905     752.616      73.325
  O      -43.291     752.422      71.971
  C      -42.671     751.266      74.006
  O      -43.766     750.370      73.747
  C      -41.458     750.522      73.492
  O      -40.234     751.104      73.905
  C      -41.708     749.137      74.085
  O      -41.349     749.098      75.472
  C      -43.242     749.016      73.914
  N      -43.614     748.150      72.802
  C      -43.678     746.781      73.090
  O      -43.429     746.374      74.226
  N      -43.976     745.904      72.077
  C      -44.228     746.365      70.887
  N      -44.518     745.447      69.918
  C      -44.203     747.802      70.546
  C      -43.892     748.631      71.542
  O      -41.185     753.367      71.014
  O      -43.242     753.042      69.458
  H      -41.921     749.743      75.925
  H      -40.883     753.626      71.909
  H      -44.426     748.137      69.541
  H      -43.851     749.696      71.378
  H      -43.703     748.612      74.832
  H      -41.128     748.360      73.581
  H      -41.500     750.430      72.399
  H      -42.611     751.438      75.089
  H      -44.502     744.470      70.181
  H      -43.650     753.204      73.868
  H      -44.695     745.680      68.956
  H      -41.972     753.192      73.323
  P      -38.879     750.803      73.117
  C      -37.642     749.060      74.555
  O      -38.502     749.272      73.434
  O      -37.776     751.778      73.345
  O      -39.358     750.705      71.576
  H      -40.018     750.014      71.405
  H      -37.459     748.012      74.671
  H      -38.108     749.441      75.439
  H      -36.714     749.568      74.394

 6  7  8  9  10  11  12  13  14  15  16  26  30  31  32  33  35 0
 6-311+G(2d,p)
 ****
 37  38 0
 6-311+G(2d,p)
 ****
 1  2  3  4  5  17  18  19  20  21  22  23  24  25 0
 3-21G
 ****
 27  28  29  34  36  39  40  41  42  43  44  45  46 0
 3-21G
 ****


