%nproc=1
%NoSave
%Mem=1900MB
#P OB98/GEN NMR

erre ene a

0 1
  C      -21.342     153.696     -85.160
  O      -21.032     155.080     -84.971
  P      -20.190     155.804     -86.131
  C      -21.990     156.013     -87.985
  O      -21.201     156.688     -87.015
  C      -23.065     156.936     -88.576
  O      -24.109     157.207     -87.597
  C      -22.523     158.294     -89.036
  O      -23.288     158.706     -90.178
  C      -22.856     159.207     -87.871
  O      -22.847     160.579     -88.261
  C      -24.215     158.642     -87.461
  N      -26.563     162.145     -84.583
  C      -26.368     162.052     -85.914
  N      -25.709     161.095     -86.604
  C      -25.266     160.139     -85.772
  C      -25.378     160.101     -84.388
  C      -26.066     161.169     -83.784
  N      -26.242     161.275     -82.423
  N      -24.748     158.976     -83.882
  C      -24.259     158.357     -84.938
  N      -24.573     159.004     -86.102
  O      -19.798     154.594     -87.103
  O      -18.975     156.526     -85.638
  H      -23.670     160.757     -88.771
  H      -18.845     154.396     -87.017
  H      -26.792     162.861     -86.507
  H      -23.675     157.449     -84.915
  H      -25.026     158.987     -88.112
  H      -22.119     159.077     -87.071
  H      -21.456     158.302     -89.280
  H      -23.533     156.420     -89.422
  H      -22.474     155.139     -87.535
  H      -26.719     162.090     -82.068
  H      -25.833     160.578     -81.817
  H      -21.330     155.618     -88.768
  P      -22.558     158.606     -91.601
  C      -22.606     156.007     -91.662
  O      -23.036     157.223     -92.254
  O      -21.023     158.340     -91.222
  O      -22.721     159.819     -92.458
  H      -20.440     158.653     -91.940
  H      -23.439     155.299     -91.667
  H      -22.275     156.150     -90.625
  H      -21.784     155.596     -92.248
  H      -21.902     153.338     -84.321
  H      -20.434     153.136     -85.249
  H      -21.922     153.579     -86.052

 3  4  5  6  7  8  9  10  11  12  22  25  29  30  31  32 0
 6-311+G(2d,p)
 ****
 33  36  37 0
 6-311+G(2d,p)
 ****
 1  2  13  14  15  16  17  18  19  20  21  23  24  26 0
 3-21G
 ****
 27  28  34  35  38  39  40  41  42  43  44  45  46  47  48 0
 3-21G
 ****


