%nproc=1
%NoSave
%Mem=1900MB
#P OB98/GEN NMR

erre ene a

0 1
  C     -453.584     443.706     -75.149
  O     -453.483     445.068     -74.773
  H     -453.923     443.128     -74.286
  H     -452.607     443.331     -75.462
  H     -454.307     443.592     -75.960
  P     -453.022     446.093     -75.915
  C     -450.934     446.221     -77.450
  O     -451.646     445.475     -76.467
  C     -449.583     445.572     -77.732
  O     -448.651     445.841     -76.669
  C     -449.623     444.052     -77.863
  O     -450.067     443.668     -79.160
  C     -448.164     443.705     -77.636
  O     -447.417     443.932     -78.848
  C     -447.737     444.719     -76.560
  N     -445.253     441.956     -73.018
  C     -445.038     442.119     -74.342
  N     -445.761     442.834     -75.227
  C     -446.810     443.425     -74.632
  C     -447.159     443.341     -73.288
  C     -446.322     442.573     -72.460
  N     -446.535     442.417     -71.108
  N     -448.302     444.071     -73.030
  C     -448.608     444.623     -74.190
  N     -447.761     444.233     -75.190
  O     -452.989     447.531     -75.521
  O     -454.054     445.729     -77.087
  H     -447.391     444.895     -79.003
  H     -454.210     444.771     -77.119
  H     -444.165     441.611     -74.740
  H     -449.422     445.325     -74.347
  H     -446.723     445.105     -76.743
  H     -448.024     442.654     -77.372
  H     -450.230     443.604     -77.066
  H     -449.177     446.026     -78.647
  H     -450.789     447.250     -77.113
  H     -445.994     441.717     -70.629
  H     -447.392     442.774     -70.723
  H     -451.547     446.231     -78.360
  P     -450.947     442.342     -79.359
  C     -450.478     439.862     -79.872
  O     -449.923     441.176     -79.777
  O     -452.118     442.495     -80.271
  O     -451.389     441.924     -77.884
  H     -452.309     441.582     -77.885
  H     -449.712     439.171     -80.155
  H     -451.254     439.855     -80.608
  H     -450.883     439.577     -78.924

 6  7  8  9  10  11  12  13  14  15  25  28  32  33  34  35 0
 6-311+G(2d,p)
 ****
 36  39  40 0
 6-311+G(2d,p)
 ****
 1  2  3  4  5  16  17  18  19  20  21  22  23  24 0
 3-21G
 ****
 26  27  29  30  31  37  38  41  42  43  44  45  46  47 0
 3-21G
 ****
 48 0
 3-21G
 ****


