%nproc=1
%NoSave
%Mem=1900MB
#P OB98/GEN NMR

erre ene a

0 1
  C     -851.854    2020.469    1414.194
  O     -853.193    2020.069    1414.505
  P     -853.511    2019.770    1416.049
  C     -854.939    2017.615    1415.615
  O     -854.901    2018.947    1416.078
  C     -856.376    2017.168    1415.361
  O     -857.125    2017.231    1416.557
  C     -857.131    2018.034    1414.330
  O     -856.738    2017.773    1413.002
  C     -858.562    2017.651    1414.681
  O     -858.875    2016.371    1414.053
  C     -858.513    2017.479    1416.214
  N     -862.645    2020.044    1417.865
  C     -862.518    2018.909    1417.154
  N     -861.397    2018.270    1416.726
  C     -860.323    2018.994    1417.125
  C     -860.276    2020.186    1417.846
  C     -861.481    2020.737    1418.196
  N     -861.634    2021.892    1418.929
  N     -858.974    2020.606    1418.018
  C     -858.241    2019.679    1417.423
  N     -858.979    2018.695    1416.906
  O     -853.917    2021.207    1416.615
  O     -852.399    2019.128    1416.853
  H     -859.014    2016.543    1413.084
  H     -853.625    2021.323    1417.551
  H     -863.435    2018.406    1416.906
  H     -857.127    2019.685    1417.409
  H     -859.116    2016.638    1416.548
  H     -859.313    2018.391    1414.298
  H     -856.996    2019.122    1414.576
  H     -856.322    2016.120    1414.975
  H     -854.476    2016.959    1416.365
  H     -862.561    2022.294    1419.018
  H     -860.804    2022.444    1419.062
  H     -854.320    2017.539    1414.692
  P     -856.133    2018.991    1412.158
  C     -857.554    2018.198    1410.170
  O     -856.290    2018.527    1410.649
  O     -854.568    2018.874    1412.481
  O     -856.759    2020.317    1412.475
  H     -854.248    2017.960    1412.311
  H     -857.507    2017.914    1409.122
  H     -858.229    2019.073    1410.297
  H     -857.971    2017.351    1410.731
  H     -851.768    2020.638    1413.141
  H     -851.174    2019.697    1414.488
  H     -851.620    2021.371    1414.720

 3  4  5  6  7  8  9  10  11  12  22  25  29  30  31  32 0
 6-311+G(2d,p)
 ****
 33  36  37 0
 6-311+G(2d,p)
 ****
 1  2  13  14  15  16  17  18  19  20  21  23  24  26 0
 3-21G
 ****
 27  28  34  35  38  39  40  41  42  43  44  45  46  47  48 0
 3-21G
 ****


