%nproc=1
%NoSave
%Mem=1900MB
#P OB98/GEN NMR

erre ene a

0 1
  C      114.988    -103.163       1.992
  O      114.303    -102.411       2.981
  P      113.194    -103.171       3.859
  C      111.207    -102.395       2.376
  O      111.959    -103.488       2.883
  C      110.067    -102.885       1.479
  O      110.606    -103.817       0.499
  C      108.935    -103.611       2.227
  O      107.717    -103.290       1.545
  C      109.308    -105.071       2.030
  O      108.247    -105.977       2.280
  C      109.821    -105.028       0.592
  N      109.962    -109.335      -2.162
  C      109.043    -108.346      -2.082
  N      109.076    -107.225      -1.332
  C      110.213    -107.169      -0.616
  C      111.232    -108.108      -0.579
  C      111.077    -109.237      -1.401
  N      112.014    -110.249      -1.472
  N      112.226    -107.720       0.296
  C      111.815    -106.567       0.782
  N      110.616    -106.184       0.246
  O      112.625    -102.012       4.803
  O      113.702    -104.338       4.647
  H      108.547    -106.894       2.118
  H      112.444    -102.345       5.702
  H      108.161    -108.473      -2.705
  H      112.335    -105.980       1.529
  H      109.001    -104.952      -0.133
  H      110.119    -105.327       2.722
  H      108.848    -103.312       3.276
  H      109.666    -102.026       0.928
  H      111.860    -101.751       1.776
  H      111.721    -111.099      -1.933
  H      112.730    -110.265      -0.755
  H      110.823    -101.799       3.210
  P      106.364    -103.149       2.398
  C      105.416    -104.876       0.747
  O      105.579    -104.521       2.107
  O      105.543    -102.111       1.494
  O      106.530    -102.740       3.821
  H      105.517    -102.390       0.561
  H      104.958    -105.869       0.698
  H      106.386    -104.906       0.242
  H      104.757    -104.158       0.251
  H      115.692    -102.533       1.489
  H      114.283    -103.547       1.284
  H      115.506    -103.976       2.457

 3  4  5  6  7  8  9  10  11  12  22  25  29  30  31  32 0
 6-311+G(2d,p)
 ****
 33  36  37 0
 6-311+G(2d,p)
 ****
 1  2  13  14  15  16  17  18  19  20  21  23  24  26 0
 3-21G
 ****
 27  28  34  35  38  39  40  41  42  43  44  45  46  47  48 0
 3-21G
 ****


