%nproc=1
%NoSave
%Mem=1900MB
#P OB98/GEN NMR

erre ene a

0 1
  C     -391.156    -106.410     522.726
  O     -390.506    -106.514     521.476
  H     -391.773    -105.507     522.725
  H     -390.419    -106.327     523.528
  H     -391.805    -107.273     522.903
  P     -389.681    -107.846     521.144
  C     -390.620    -108.418     518.808
  O     -390.610    -108.740     520.191
  C     -392.057    -108.269     518.294
  O     -392.683    -107.146     518.987
  C     -392.160    -107.983     516.782
  O     -393.400    -108.548     516.334
  C     -392.211    -106.464     516.784
  O     -392.579    -105.934     515.533
  C     -393.166    -106.247     517.964
  N     -393.233    -104.880     518.469
  C     -394.468    -104.239     518.441
  O     -395.508    -104.746     518.024
  N     -394.482    -102.957     518.917
  C     -393.412    -102.274     519.420
  O     -393.493    -101.134     519.862
  C     -392.134    -102.999     519.415
  C     -392.103    -104.251     518.954
  O     -389.108    -108.564     522.319
  O     -388.534    -107.339     520.147
  H     -387.693    -107.253     520.633
  H     -392.710    -104.967     515.624
  H     -395.368    -102.479     518.910
  H     -391.263    -102.483     519.797
  H     -391.177    -104.815     518.950
  H     -394.173    -106.580     517.696
  H     -391.219    -106.059     516.998
  H     -391.335    -108.410     516.208
  H     -392.625    -109.166     518.566
  H     -390.116    -109.225     518.266
  H     -390.065    -107.486     518.650
  P     -393.492    -109.748     515.274
  C     -395.531    -111.265     515.777
  O     -394.152    -111.016     516.015
  O     -392.200    -110.058     514.596
  O     -394.605    -109.299     514.218
  H     -394.440    -109.733     513.362
  H     -395.837    -112.130     516.327
  H     -395.688    -111.433     514.732
  H     -396.106    -110.420     516.093

 6  7  8  9  10  11  12  13  14  15  16  27  31  32  33  34  35 0
 6-311+G(2d,p)
 ****
 36  37 0
 6-311+G(2d,p)
 ****
 1  2  3  4  5  17  18  19  20  21  22  23  24  25 0
 3-21G
 ****
 26  28  29  30  38  39  40  41  42  43  44  45 0
 3-21G
 ****


