%nproc=1
%NoSave
%Mem=1900MB
#P OB98/GEN NMR

erre ene a

0 1
  C      -46.594    -190.640     -10.144
  O      -45.619    -190.948     -11.127
  P      -45.578    -190.041     -12.453
  C      -43.599    -188.390     -12.075
  O      -44.999    -188.610     -12.016
  C      -43.251    -187.458     -13.240
  O      -43.934    -186.194     -13.038
  C      -41.758    -187.149     -13.390
  O      -41.508    -186.971     -14.789
  C      -41.611    -185.819     -12.674
  O      -40.449    -185.101     -13.081
  C      -42.932    -185.153     -13.038
  N      -41.963    -180.439     -11.482
  C      -41.309    -181.213     -12.425
  N      -40.291    -180.619     -13.084
  N      -41.626    -182.451     -12.696
  C      -42.675    -182.902     -11.968
  C      -43.376    -182.250     -10.982
  C      -43.041    -180.869     -10.719
  O      -43.647    -180.121      -9.956
  N      -44.313    -183.066     -10.407
  C      -44.234    -184.184     -11.100
  N      -43.287    -184.117     -12.087
  O      -47.124    -189.755     -12.737
  O      -44.880    -190.648     -13.630
  H      -40.457    -184.236     -12.625
  H      -47.493    -190.404     -13.366
  H      -41.685    -179.484     -11.330
  H      -44.834    -185.065     -10.939
  H      -42.913    -184.695     -14.035
  H      -41.539    -185.989     -11.592
  H      -40.014    -179.660     -12.947
  H      -41.106    -187.925     -12.982
  H      -39.816    -181.152     -13.802
  H      -43.646    -187.900     -14.161
  H      -43.096    -189.348     -12.234
  H      -43.252    -187.970     -11.125
  P      -40.049    -187.337     -15.343
  C      -40.537    -189.881     -15.341
  O      -39.716    -188.830     -14.874
  O      -39.086    -186.440     -14.428
  O      -39.835    -187.040     -16.791
  H      -38.299    -186.178     -14.941
  H      -39.978    -190.818     -15.281
  H      -40.846    -189.722     -16.376
  H      -41.424    -189.958     -14.706
  H      -46.502    -191.322      -9.325
  H      -47.571    -190.726     -10.572
  H      -46.444    -189.640      -9.794

 3  4  5  6  7  8  9  10  11  12  23  26  30  31 0
 6-311+G(2d,p)
 ****
 33  35  36  37  38 0
 6-311+G(2d,p)
 ****
 1  2  13  14  15  16  17  18  19  20  21  22  24  25 0
 3-21G
 ****
 27  28  29  32  34  39  40  41  42  43  44  45  46  47  48  49 0
 3-21G
 ****


