%nproc=1
%NoSave
%Mem=1900MB
#P OB98/GEN NMR

erre ene a

0 1
  C        3.258      33.943      -1.180
  O        2.474      34.601      -2.153
  H        4.302      33.958      -1.503
  H        2.936      32.905      -1.079
  H        3.179      34.454      -0.218
  P        0.898      34.719      -1.866
  C        1.115      36.933      -0.515
  O        0.627      36.295      -1.688
  C        0.702      38.407      -0.498
  O        1.294      39.079      -1.635
  C       -0.811      38.612      -0.569
  O       -1.193      39.637       0.351
  C       -1.060      39.055      -1.999
  O       -2.242      39.843      -2.125
  C        0.250      39.773      -2.343
  N        0.501      39.785      -3.783
  C       -0.313      40.615      -4.558
  O       -1.202      41.283      -4.026
  N       -0.141      40.630      -5.918
  C        0.727      39.839      -6.466
  N        0.836      39.884      -7.820
  C        1.575      38.911      -5.692
  C        1.416      38.940      -4.370
  O        0.760      34.143      -0.382
  O        0.017      34.046      -2.864
  H       -2.972      39.368      -1.671
  H       -0.183      33.958      -0.153
  H        2.274      38.260      -6.194
  H        1.994      38.292      -3.722
  H        0.229      40.810      -1.983
  H       -1.179      38.170      -2.637
  H       -1.374      37.708      -0.341
  H        1.126      38.875       0.397
  H        0.231      40.524      -8.318
  H        2.206      36.857      -0.498
  H        1.456      39.292      -8.353
  H        0.706      36.428       0.365
  P       -2.159      39.179       1.550
  C       -0.509      38.193       3.290
  O       -1.321      39.295       2.916
  O       -2.312      37.603       1.325
  O       -3.474      39.884       1.560
  H       -3.154      37.403       0.876
  H       -0.015      38.411       4.213
  H        0.221      38.013       2.528
  H       -1.121      37.324       3.410

 6  7  8  9  10  11  12  13  14  15  16  26  30  31  32  33  35 0
 6-311+G(2d,p)
 ****
 37  38 0
 6-311+G(2d,p)
 ****
 1  2  3  4  5  17  18  19  20  21  22  23  24  25 0
 3-21G
 ****
 27  28  29  34  36  39  40  41  42  43  44  45  46 0
 3-21G
 ****


