%nproc=1
%NoSave
%Mem=1900MB
#P OB98/GEN NMR

erre ene a

0 1
  C     -234.249      93.427     -45.163
  O     -233.508      93.984     -44.102
  P     -233.088      95.521     -44.021
  C     -230.812      95.042     -45.226
  O     -232.009      95.815     -45.175
  C     -229.571      95.946     -45.241
  O     -229.556      96.691     -46.489
  C     -229.621      96.983     -44.101
  O     -228.374      97.186     -43.447
  C     -230.261      98.195     -44.774
  O     -230.015      99.418     -44.091
  C     -229.702      98.090     -46.189
  N     -231.218     102.428     -48.378
  C     -230.169     102.216     -47.497
  N     -229.569     103.320     -47.015
  N     -229.780     101.028     -47.118
  C     -230.542     100.023     -47.601
  C     -231.607     100.110     -48.475
  C     -232.010     101.422     -48.914
  O     -233.006     101.672     -49.594
  N     -232.189      98.884     -48.692
  C     -231.508      98.064     -47.921
  N     -230.519      98.708     -47.220
  O     -232.829      96.079     -42.664
  O     -234.404      96.253     -44.607
  H     -230.793      99.987     -44.222
  H     -234.494      97.105     -44.137
  H     -231.525     103.378     -48.574
  H     -231.698      96.999     -47.819
  H     -228.718      98.562     -46.265
  H     -231.341      98.040     -44.763
  H     -229.942     104.250     -47.174
  H     -230.271      96.640     -43.295
  H     -228.977     103.204     -46.199
  H     -228.673      95.323     -45.205
  H     -230.859      94.458     -46.156
  H     -230.772      94.337     -44.391
  P     -228.085      97.478     -41.903
  C     -227.223      99.883     -42.197
  O     -228.230      99.048     -41.645
  O     -226.517      97.234     -41.724
  O     -228.852      96.621     -40.953
  H     -226.354      96.788     -40.862
  H     -227.282     100.865     -41.738
  H     -227.394      99.983     -43.276
  H     -226.231      99.461     -42.023
  H     -234.400      92.383     -44.983
  H     -233.712      93.557     -46.080
  H     -235.197      93.918     -45.232

 3  4  5  6  7  8  9  10  11  12  23  26  30  31 0
 6-311+G(2d,p)
 ****
 33  35  36  37  38 0
 6-311+G(2d,p)
 ****
 1  2  13  14  15  16  17  18  19  20  21  22  24  25 0
 3-21G
 ****
 27  28  29  32  34  39  40  41  42  43  44  45  46  47  48  49 0
 3-21G
 ****


