%nproc=1
%NoSave
%Mem=1900MB
#P OB98/GEN NMR

erre ene a

0 1
  C     -872.188    -507.912     186.319
  O     -870.985    -507.487     185.704
  H     -872.830    -508.373     185.558
  H     -872.714    -507.056     186.743
  H     -871.992    -508.655     187.092
  P     -869.795    -506.953     186.629
  C     -868.290    -509.038     186.376
  O     -869.067    -508.236     187.254
  C     -867.685    -510.233     187.114
  O     -868.782    -511.117     187.541
  C     -866.721    -511.092     186.270
  O     -865.758    -511.655     187.165
  C     -867.674    -512.153     185.729
  O     -867.011    -513.223     185.126
  C     -868.485    -512.431     187.003
  N     -869.705    -513.192     186.816
  C     -869.694    -514.546     187.158
  O     -868.715    -515.131     187.625
  N     -870.874    -515.228     186.967
  C     -872.036    -514.699     186.476
  O     -873.056    -515.353     186.338
  C     -871.991    -513.271     186.112
  C     -870.847    -512.584     186.298
  O     -870.161    -505.892     187.612
  O     -868.710    -506.419     185.574
  H     -868.762    -505.443     185.515
  H     -866.367    -512.864     184.467
  H     -870.883    -516.209     187.206
  H     -872.880    -512.813     185.722
  H     -870.786    -511.528     186.069
  H     -867.849    -512.943     187.747
  H     -868.309    -511.718     184.944
  H     -866.208    -510.503     185.493
  H     -867.200    -509.878     188.030
  H     -867.479    -508.408     185.975
  H     -868.920    -509.388     185.547
  P     -864.226    -511.199     187.221
  C     -864.404    -510.172     189.594
  O     -864.120    -509.944     188.228
  O     -863.614    -510.949     185.889
  O     -863.457    -512.374     188.007
  H     -862.514    -512.387     187.735
  H     -864.294    -509.257     190.139
  H     -863.725    -510.902     189.982
  H     -865.408    -510.529     189.695

 6  7  8  9  10  11  12  13  14  15  16  27  31  32  33  34  35 0
 6-311+G(2d,p)
 ****
 36  37 0
 6-311+G(2d,p)
 ****
 1  2  3  4  5  17  18  19  20  21  22  23  24  25 0
 3-21G
 ****
 26  28  29  30  38  39  40  41  42  43  44  45 0
 3-21G
 ****


