%nproc=1
%NoSave
%Mem=1900MB
#P OB98/GEN NMR

erre ene a

0 1
  C      412.616    -255.913    -422.530
  O      413.520    -255.797    -423.608
  H      412.175    -254.930    -422.332
  H      413.140    -256.255    -421.635
  H      411.813    -256.613    -422.786
  P      414.281    -257.132    -424.065
  C      416.418    -258.394    -423.288
  O      415.555    -257.275    -423.093
  C      417.549    -258.379    -422.256
  O      418.331    -257.166    -422.426
  C      417.056    -258.417    -420.795
  O      417.960    -259.230    -420.027
  C      417.202    -256.970    -420.351
  O      417.310    -256.853    -418.935
  C      418.448    -256.558    -421.122
  N      421.026    -252.591    -419.383
  C      421.178    -253.939    -419.133
  N      422.157    -254.293    -418.273
  N      420.422    -254.866    -419.661
  C      419.495    -254.375    -420.522
  C      419.239    -253.068    -420.850
  C      420.068    -252.046    -420.239
  O      419.968    -250.837    -420.414
  N      418.189    -252.981    -421.734
  C      417.815    -254.233    -421.934
  N      418.578    -255.108    -421.220
  O      414.939    -256.730    -425.472
  O      413.431    -258.357    -424.172
  H      418.047    -257.430    -418.642
  H      415.012    -257.508    -426.056
  H      421.626    -251.918    -418.949
  H      417.001    -254.547    -422.584
  H      419.371    -256.927    -420.655
  H      416.324    -256.396    -420.680
  H      422.797    -253.636    -417.849
  H      416.041    -258.792    -420.684
  H      422.298    -255.277    -418.069
  H      418.219    -259.220    -422.466
  H      416.841    -258.344    -424.297
  H      415.836    -259.317    -423.188
  P      417.322    -260.223    -418.942
  C      416.327    -259.896    -416.563
  O      417.285    -259.464    -417.520
  O      418.472    -261.333    -418.745
  O      416.041    -260.852    -419.369
  H      418.195    -262.167    -419.153
  H      416.419    -259.306    -415.675
  H      416.498    -260.925    -416.327
  H      415.343    -259.782    -416.967

 6  7  8  9  10  11  12  13  14  15  26  29  33  34 0
 6-311+G(2d,p)
 ****
 36  38  39  40  41 0
 6-311+G(2d,p)
 ****
 1  2  3  4  5  16  17  18  19  20  21  22  23  24  25 0
 3-21G
 ****
 27  28  30  31  32  35  37  42  43  44  45  46  47 0
 3-21G
 ****
 48  49 0
 3-21G
 ****


