%nproc=1
%NoSave
%Mem=1900MB
#P OB98/GEN NMR

erre ene a

0 1
  C      585.298    -467.124    -184.635
  O      585.064    -465.730    -184.556
  P      584.823    -465.106    -183.098
  C      585.603    -462.762    -183.921
  O      584.564    -463.538    -183.326
  C      585.128    -461.326    -184.146
  O      584.252    -461.271    -185.281
  C      584.336    -460.747    -182.984
  O      585.197    -460.358    -181.934
  C      583.620    -459.584    -183.659
  O      584.441    -458.406    -183.670
  C      583.401    -460.113    -185.096
  N      582.003    -460.432    -185.367
  C      581.230    -459.376    -185.865
  O      581.727    -458.264    -186.025
  N      579.898    -459.611    -186.127
  C      579.392    -460.780    -185.900
  N      578.070    -460.954    -186.183
  C      580.171    -461.914    -185.363
  C      581.463    -461.669    -185.114
  O      586.280    -465.148    -182.438
  O      583.805    -465.818    -182.269
  H      584.531    -458.132    -182.730
  H      586.222    -465.196    -181.465
  H      579.706    -462.870    -185.195
  H      582.107    -462.443    -184.715
  H      583.728    -459.370    -185.830
  H      582.695    -459.321    -183.141
  H      583.601    -461.477    -182.621
  H      586.006    -460.701    -184.360
  H      577.558    -460.161    -186.544
  H      585.874    -463.197    -184.883
  H      577.590    -461.839    -186.069
  H      586.481    -462.782    -183.265
  P      584.860    -460.877    -180.459
  C      587.201    -460.072    -179.782
  O      585.815    -460.024    -179.494
  O      585.568    -462.321    -180.437
  O      583.421    -460.950    -180.077
  H      585.344    -462.786    -179.610
  H      587.715    -459.333    -179.157
  H      587.387    -459.830    -180.836
  H      587.597    -461.066    -179.551
  H      585.441    -467.404    -185.658
  H      584.456    -467.650    -184.236
  H      586.173    -467.371    -184.071

 3  4  5  6  7  8  9  10  11  12  13  21  23  27  28  29  30  32 0
 6-311+G(2d,p)
 ****
 34  35 0
 6-311+G(2d,p)
 ****
 1  2  14  15  16  17  18  19  20  22  24  25  26 0
 3-21G
 ****
 31  33  36  37  38  39  40  41  42  43  44  45  46 0
 3-21G
 ****


