%nproc=1
%NoSave
%Mem=1900MB
#P OB98/GEN NMR

erre ene a

0 1
  C      556.544    -272.649     -36.309
  O      556.860    -273.093     -34.983
  P      556.655    -274.617     -34.523
  C      557.932    -276.813     -34.953
  O      558.037    -275.407     -34.727
  C      559.195    -277.375     -35.624
  O      559.422    -276.741     -36.896
  C      560.476    -277.181     -34.821
  O      560.561    -278.140     -33.778
  C      561.533    -277.313     -35.910
  O      561.792    -278.703     -36.193
  C      560.846    -276.643     -37.103
  N      562.371    -273.149     -40.512
  C      562.016    -274.446     -40.642
  N      561.627    -275.313     -39.684
  C      561.595    -274.708     -38.485
  C      561.933    -273.397     -38.198
  C      562.339    -272.595     -39.276
  N      562.716    -271.275     -39.137
  N      561.807    -273.145     -36.845
  C      561.379    -274.286     -36.331
  N      561.237    -275.259     -37.284
  O      555.468    -275.284     -35.135
  O      556.502    -274.544     -32.928
  H      560.982    -279.081     -36.575
  H      555.958    -275.291     -32.616
  H      562.051    -274.840     -41.657
  H      561.158    -274.449     -35.281
  H      561.059    -277.169     -38.041
  H      562.487    -276.857     -35.630
  H      560.507    -276.168     -34.400
  H      559.019    -278.441     -35.816
  H      557.065    -276.995     -35.600
  H      563.031    -270.780     -39.957
  H      562.741    -270.872     -38.213
  H      557.768    -277.308     -33.991
  P      560.983    -277.684     -32.300
  C      559.891    -276.440     -30.339
  O      559.720    -276.935     -31.656
  O      562.279    -276.957     -32.191
  O      561.023    -279.063     -31.479
  H      561.680    -278.993     -30.759
  H      559.760    -277.258     -29.627
  H      559.129    -275.681     -30.149
  H      560.873    -275.987     -30.215
  H      556.757    -271.604     -36.395
  H      555.506    -272.819     -36.504
  H      557.134    -273.193     -37.017

 3  4  5  6  7  8  9  10  11  12  22  25  29  30  31  32 0
 6-311+G(2d,p)
 ****
 33  36  37 0
 6-311+G(2d,p)
 ****
 1  2  13  14  15  16  17  18  19  20  21  23  24  26 0
 3-21G
 ****
 27  28  34  35  38  39  40  41  42  43  44  45  46  47  48 0
 3-21G
 ****


