%nproc=1
%NoSave
%Mem=1900MB
#P OB98/GEN NMR

erre ene a

0 1
  C      629.667      58.557     413.720
  O      629.220      58.667     412.387
  H      629.370      59.463     414.263
  H      630.755      58.475     413.751
  H      629.213      57.692     414.214
  P      629.379      57.402     411.416
  C      631.567      58.173     410.294
  O      630.946      57.212     411.143
  C      632.483      57.463     409.288
  O      633.422      56.627     409.993
  C      631.742      56.540     408.332
  O      631.064      57.268     407.328
  C      632.887      55.674     407.834
  O      633.619      56.327     406.793
  C      633.756      55.533     409.110
  N      633.565      54.240     409.764
  C      634.150      53.141     409.144
  O      634.813      53.214     408.109
  N      633.908      51.928     409.731
  C      633.038      51.701     410.756
  O      632.656      50.580     411.081
  C      632.499      52.899     411.412
  C      632.777      54.100     410.884
  O      628.522      57.412     410.195
  O      629.033      56.156     412.364
  H      628.121      55.852     412.177
  H      634.302      55.691     406.505
  H      634.294      51.119     409.256
  H      631.859      52.768     412.277
  H      632.356      55.001     411.327
  H      634.821      55.641     408.856
  H      632.527      54.725     407.449
  H      631.038      55.915     408.889
  H      633.046      58.232     408.741
  H      632.166      58.854     410.910
  H      630.794      58.746     409.773
  P      629.725      56.682     406.667
  C      630.148      55.984     404.232
  O      630.142      55.565     405.591
  O      628.763      57.706     406.165
  O      629.069      55.808     407.840
  H      628.132      56.054     407.935
  H      630.439      55.165     403.608
  H      630.842      56.789     404.110
  H      629.168      56.313     403.956

 6  7  8  9  10  11  12  13  14  15  16  27  31  32  33  34  35 0
 6-311+G(2d,p)
 ****
 36  37 0
 6-311+G(2d,p)
 ****
 1  2  3  4  5  17  18  19  20  21  22  23  24  25 0
 3-21G
 ****
 26  28  29  30  38  39  40  41  42  43  44  45 0
 3-21G
 ****


