%nproc=1
%NoSave
%Mem=1900MB
#P OB98/GEN NMR

erre ene a

0 1
  C     -248.579    -184.703      61.200
  O     -249.163    -185.967      61.444
  H     -249.041    -183.973      61.872
  H     -248.771    -184.396      60.170
  H     -247.504    -184.727      61.393
  P     -248.573    -187.253      60.692
  C     -250.709    -188.271      59.658
  O     -249.514    -187.536      59.420
  C     -251.669    -188.143      58.470
  O     -252.162    -186.778      58.416
  C     -251.021    -188.461      57.118
  O     -251.967    -189.136      56.292
  C     -250.719    -187.090      56.541
  O     -250.668    -187.102      55.114
  C     -251.864    -186.252      57.104
  N     -251.179    -182.022      54.423
  C     -251.630    -183.266      54.026
  N     -251.929    -183.413      52.716
  N     -251.777    -184.280      54.843
  C     -251.463    -183.980      56.129
  C     -251.005    -182.791      56.645
  C     -250.828    -181.687      55.725
  O     -250.415    -180.564      56.017
  N     -250.778    -182.889      57.995
  C     -251.097    -184.137      58.291
  N     -251.509    -184.844      57.191
  O     -248.337    -188.445      61.568
  O     -247.215    -186.735      60.029
  H     -250.340    -186.221      54.833
  H     -246.439    -187.060      60.518
  H     -251.076    -181.281      53.752
  H     -251.048    -184.577      59.279
  H     -252.769    -186.314      56.492
  H     -249.748    -186.735      56.915
  H     -251.864    -182.669      52.040
  H     -250.124    -189.073      57.223
  H     -252.292    -184.306      52.406
  H     -252.536    -188.788      58.651
  H     -251.185    -187.870      60.559
  H     -250.458    -189.323      59.828
  P     -251.588    -190.568      55.678
  C     -250.764    -189.624      53.432
  O     -250.419    -190.372      54.593
  O     -252.739    -191.398      55.220
  O     -250.817    -191.282      56.895
  H     -251.012    -192.240      56.877
  H     -249.915    -189.558      52.785
  H     -251.070    -188.640      53.720
  H     -251.567    -190.112      52.919

 6  7  8  9  10  11  12  13  14  15  26  29  33  34 0
 6-311+G(2d,p)
 ****
 36  38  39  40  41 0
 6-311+G(2d,p)
 ****
 1  2  3  4  5  16  17  18  19  20  21  22  23  24  25 0
 3-21G
 ****
 27  28  30  31  32  35  37  42  43  44  45  46  47 0
 3-21G
 ****
 48  49 0
 3-21G
 ****


