%nproc=1
%NoSave
%Mem=1900MB
#P OB98/GEN NMR

erre ene a

0 1
  C     -111.946     169.336    -113.141
  O     -112.569     170.619    -113.020
  P     -112.263     171.697    -114.170
  C     -114.172     170.946    -115.800
  O     -113.660     171.934    -114.920
  C     -115.073     171.596    -116.850
  O     -115.273     170.704    -117.974
  C     -116.469     171.932    -116.346
  O     -116.454     173.072    -115.503
  C     -117.212     172.118    -117.665
  O     -116.956     173.425    -118.202
  C     -116.555     171.043    -118.556
  N     -117.388     169.863    -118.737
  C     -117.691     169.530    -120.053
  O     -117.310     170.192    -121.018
  N     -118.469     168.418    -120.225
  C     -118.984     167.640    -119.229
  O     -119.665     166.646    -119.446
  C     -118.671     168.068    -117.858
  C     -117.899     169.143    -117.676
  O     -111.405     170.821    -115.195
  O     -111.583     172.920    -113.657
  H     -111.697     169.893    -115.239
  H     -116.028     173.418    -118.513
  H     -118.687     168.152    -121.173
  H     -119.084     167.489    -117.043
  H     -117.660     169.476    -116.670
  H     -116.335     171.458    -119.549
  H     -118.294     172.017    -117.552
  H     -116.885     171.074    -115.805
  H     -114.572     172.502    -117.213
  H     -114.751     170.207    -115.238
  H     -113.334     170.422    -116.270
  P     -117.605     173.160    -114.385
  C     -116.191     172.494    -112.291
  O     -116.870     173.503    -113.003
  O     -118.014     171.620    -114.239
  O     -118.734     174.065    -114.757
  H     -117.246     171.027    -114.200
  H     -115.487     172.965    -111.599
  H     -115.636     171.832    -112.961
  H     -116.911     171.908    -111.713
  H     -112.233     168.721    -112.314
  H     -110.883     169.455    -113.144
  H     -112.256     168.874    -114.055

 3  4  5  6  7  8  9  10  11  12  13  24  28  29  30  31  32 0
 6-311+G(2d,p)
 ****
 33  34 0
 6-311+G(2d,p)
 ****
 1  2  14  15  16  17  18  19  20  21  22  23  25  26  27 0
 3-21G
 ****
 35  36  37  38  39  40  41  42  43  44  45 0
 3-21G
 ****


