%nproc=1
%NoSave
%Mem=1900MB
#P OB98/GEN NMR

erre ene a

0 1
  C     -304.734     148.161    -446.001
  O     -304.856     149.562    -446.137
  H     -303.691     147.887    -445.826
  H     -305.336     147.836    -445.146
  H     -305.104     147.663    -446.901
  P     -303.957     150.248    -447.280
  C     -305.898     151.951    -447.514
  O     -304.494     151.755    -447.434
  C     -306.237     153.423    -447.265
  O     -305.259     154.271    -447.911
  C     -307.584     153.868    -447.820
  O     -308.666     153.475    -446.974
  C     -307.395     155.383    -447.823
  O     -307.621     155.901    -446.503
  C     -305.924     155.532    -448.209
  N     -304.980     159.260    -451.608
  C     -305.139     159.288    -450.268
  N     -305.392     158.258    -449.427
  C     -305.473     157.099    -450.107
  C     -305.337     156.927    -451.477
  C     -305.089     158.072    -452.243
  N     -304.939     158.040    -453.615
  N     -305.470     155.595    -451.809
  C     -305.688     154.968    -450.670
  N     -305.705     155.851    -449.603
  O     -304.460     149.538    -448.627
  O     -302.487     150.105    -447.102
  H     -307.712     156.870    -446.595
  H     -303.704     149.428    -449.229
  H     -305.033     160.261    -449.796
  H     -305.827     153.904    -450.559
  H     -305.425     156.299    -447.598
  H     -308.092     155.890    -448.498
  H     -307.731     153.509    -448.844
  H     -306.180     153.606    -446.183
  H     -306.395     151.341    -446.748
  H     -304.568     158.851    -454.083
  H     -305.024     157.135    -454.081
  H     -306.243     151.640    -448.498
  P     -310.109     153.345    -447.643
  C     -310.994     151.881    -445.694
  O     -311.136     153.096    -446.428
  O     -310.051     151.921    -448.387
  O     -310.477     154.447    -448.595
  H     -310.687     151.910    -449.126
  H     -311.733     151.843    -444.921
  H     -310.018     151.840    -445.257
  H     -311.124     151.049    -446.354

 6  7  8  9  10  11  12  13  14  15  25  28  32  33  34  35 0
 6-311+G(2d,p)
 ****
 36  39  40 0
 6-311+G(2d,p)
 ****
 1  2  3  4  5  16  17  18  19  20  21  22  23  24 0
 3-21G
 ****
 26  27  29  30  31  37  38  41  42  43  44  45  46  47  48 0
 3-21G
 ****


