%nproc=1
%NoSave
%Mem=1900MB
#P OB98/GEN NMR

erre ene a

0 1
  C      -12.269    -128.141     126.171
  O      -12.227    -128.903     127.372
  P      -13.223    -128.476     128.558
  C      -13.082    -126.789     130.529
  O      -12.403    -127.429     129.454
  C      -12.233    -126.825     131.797
  O      -10.833    -126.825     131.459
  C      -12.432    -125.635     132.723
  O      -13.576    -125.780     133.548
  C      -11.164    -125.705     133.559
  O      -11.303    -126.719     134.572
  C      -10.120    -126.137     132.523
  N       -5.471    -124.111     131.880
  C       -5.890    -125.203     132.553
  N       -7.149    -125.671     132.687
  C       -8.025    -124.862     132.065
  C       -7.747    -123.696     131.372
  C       -6.396    -123.326     131.279
  N       -5.966    -122.229     130.565
  N       -8.906    -123.139     130.875
  C       -9.865    -123.956     131.252
  N       -9.383    -125.019     131.965
  O      -13.275    -129.787     129.475
  O      -14.580    -128.041     128.118
  H      -11.870    -127.420     134.196
  H      -14.097    -129.793     130.002
  H       -5.112    -125.781     133.042
  H      -10.913    -123.826     131.024
  H       -9.391    -126.843     132.933
  H      -10.941    -124.766     134.073
  H      -12.448    -124.692     132.162
  H      -12.454    -127.763     132.324
  H      -14.026    -127.310     130.715
  H       -4.977    -122.136     130.393
  H       -6.632    -121.766     129.956
  H      -13.302    -125.754     130.246
  P      -14.198    -124.435     134.168
  C      -13.516    -122.891     136.146
  O      -13.287    -124.099     135.444
  O      -15.581    -124.932     134.799
  O      -14.386    -123.336     133.178
  H      -16.219    -124.195     134.845
  H      -13.047    -122.964     137.131
  H      -14.586    -122.709     136.280
  H      -13.066    -122.055     135.601
  H      -11.559    -128.534     125.474
  H      -12.029    -127.121     126.387
  H      -13.251    -128.195     125.748

 3  4  5  6  7  8  9  10  11  12  22  25  29  30  31  32 0
 6-311+G(2d,p)
 ****
 33  36  37 0
 6-311+G(2d,p)
 ****
 1  2  13  14  15  16  17  18  19  20  21  23  24  26 0
 3-21G
 ****
 27  28  34  35  38  39  40  41  42  43  44  45  46  47  48 0
 3-21G
 ****


