%nproc=1
%NoSave
%Mem=1900MB
#P OB98/GEN NMR

erre ene a

0 1
  C      127.634     -79.430      28.831
  O      126.885     -79.103      29.984
  H      127.013     -79.251      27.949
  H      127.924     -80.484      28.845
  H      128.525     -78.800      28.764
  P      127.547     -79.354      31.421
  C      127.089     -81.887      31.670
  O      126.741     -80.570      32.083
  C      126.081     -82.902      32.205
  O      126.381     -84.219      31.703
  C      126.072     -83.029      33.725
  O      125.420     -81.922      34.313
  C      125.368     -84.365      33.888
  O      123.948     -84.224      33.723
  C      125.975     -85.173      32.714
  N      127.098     -86.019      33.109
  C      127.127     -87.301      32.551
  O      126.234     -87.667      31.787
  N      128.162     -88.139      32.890
  C      129.103     -87.722      33.677
  N      130.101     -88.598      33.971
  C      129.127     -86.366      34.259
  C      128.100     -85.580      33.946
  O      127.688     -78.152      32.303
  O      128.970     -80.005      31.081
  H      123.819     -83.783      32.859
  H      129.661     -79.318      31.046
  H      129.938     -86.057      34.903
  H      128.040     -84.567      34.332
  H      125.212     -85.815      32.255
  H      125.532     -84.804      34.872
  H      127.096     -83.130      34.102
  H      125.088     -82.623      31.828
  H      130.053     -89.511      33.531
  H      128.086     -82.099      32.073
  H      130.959     -88.334      34.433
  H      127.141     -81.949      30.577
  P      126.246     -80.731      35.001
  C      126.604     -82.063      37.171
  O      126.028     -80.908      36.582
  O      125.951     -79.368      34.474
  O      127.771     -81.172      34.812
  H      128.069     -80.998      33.884
  H      126.393     -82.071      38.220
  H      127.663     -82.050      37.020
  H      126.190     -82.939      36.717

 6  7  8  9  10  11  12  13  14  15  16  26  30  31  32  33  35 0
 6-311+G(2d,p)
 ****
 37  38 0
 6-311+G(2d,p)
 ****
 1  2  3  4  5  17  18  19  20  21  22  23  24  25 0
 3-21G
 ****
 27  28  29  34  36  39  40  41  42  43  44  45  46 0
 3-21G
 ****


