%nproc=1
%NoSave
%Mem=1900MB
#P OB98/GEN NMR

erre ene a

0 1
  C     -782.715    -347.782     327.504
  O     -782.540    -347.543     328.907
  P     -782.534    -345.995     329.363
  C     -780.701    -344.219     329.893
  O     -781.013    -345.467     329.275
  C     -779.401    -343.622     329.349
  O     -778.342    -344.605     329.466
  C     -779.437    -343.186     327.881
  O     -778.666    -341.988     327.727
  C     -778.719    -344.295     327.161
  O     -778.197    -343.875     325.902
  C     -777.662    -344.662     328.201
  N     -774.160    -347.298     325.648
  C     -774.388    -345.935     325.694
  N     -773.579    -345.166     324.930
  N     -775.321    -345.371     326.417
  C     -776.029    -346.261     327.156
  C     -775.906    -347.625     327.211
  C     -774.897    -348.239     326.372
  O     -774.688    -349.450     326.249
  N     -776.813    -348.185     328.085
  C     -777.494    -347.152     328.549
  N     -777.062    -345.962     328.010
  O     -782.822    -346.079     330.934
  O     -783.541    -345.154     328.653
  H     -777.637    -343.093     326.068
  H     -783.601    -345.545     331.151
  H     -773.450    -347.684     325.059
  H     -778.318    -347.210     329.243
  H     -776.853    -343.911     328.222
  H     -779.410    -345.142     326.979
  H     -772.798    -345.536     324.396
  H     -780.453    -343.012     327.484
  H     -773.694    -344.155     324.970
  H     -779.123    -342.771     329.994
  H     -780.620    -344.358     330.975
  H     -781.535    -343.524     329.718
  P     -779.486    -340.610     327.599
  C     -779.943    -338.966     325.634
  O     -779.243    -340.108     326.096
  O     -778.618    -339.587     328.474
  O     -780.905    -340.691     328.052
  H     -779.183    -338.867     328.818
  H     -780.434    -338.429     326.438
  H     -780.696    -339.285     324.900
  H     -779.237    -338.301     325.132
  H     -782.703    -348.836     327.317
  H     -781.921    -347.314     326.961
  H     -783.652    -347.374     327.187

 3  4  5  6  7  8  9  10  11  12  23  26  30  31  33  0
 6-311+G(2d,p)
 ****
 35  36  37  38 0
 6-311+G(2d,p)
 ****
 1  2  13  14  15  16  17  18  19  20  21  22  24  25  27  28  29 0
 3-21G
 ****
 32  34  39  40  41  42  43  44  45  46  47  48  49 0
 3-21G
 ****


