%nproc=1
%NoSave
%Mem=1900MB
#P OB98/GEN NMR

erre ene a

0 1
  C      185.575     139.144     230.691
  O      186.122     140.256     229.976
  P      187.147     139.913     228.785
  C      188.945     141.320     230.038
  O      188.633     140.109     229.363
  C      190.389     141.304     230.537
  O      190.539     140.423     231.666
  C      191.400     140.814     229.511
  O      191.737     141.825     228.576
  C      192.587     140.482     230.402
  O      193.337     141.680     230.684
  C      191.907     139.958     231.682
  N      194.769     135.774     231.835
  C      195.144     137.102     231.722
  N      196.473     137.351     231.680
  N      194.295     138.096     231.672
  C      193.003     137.699     231.757
  C      192.507     136.421     231.863
  C      193.455     135.330     231.894
  O      193.174     134.134     231.954
  N      191.138     136.414     231.938
  C      190.807     137.693     231.902
  N      191.904     138.511     231.778
  O      186.975     141.156     227.790
  O      186.879     138.613     228.108
  H      192.701     142.423     230.677
  H      187.196     140.889     226.878
  H      195.465     135.052     231.862
  H      189.794     138.075     231.965
  H      192.380     140.363     232.584
  H      193.285     139.776     229.936
  H      197.181     136.640     231.790
  H      191.043     139.900     229.016
  H      196.763     138.321     231.635
  H      190.646     142.323     230.858
  H      188.271     141.457     230.885
  H      188.774     142.164     229.356
  P      191.260     141.612     227.060
  C      192.991     139.695     226.865
  O      191.653     140.107     226.687
  O      192.296     142.504     226.228
  O      189.841     142.010     226.796
  H      191.886     142.828     225.403
  H      193.401     140.061     227.806
  H      193.602     140.063     226.033
  H      193.029     138.602     226.867
  H      184.913     139.500     231.452
  H      186.368     138.585     231.141
  H      185.035     138.515     230.014

 3  4  5  6  7  8  9  10  11  12  23  26  30  31  33  0
 6-311+G(2d,p)
 ****
 35  36  37  38 0
 6-311+G(2d,p)
 ****
 1  2  13  14  15  16  17  18  19  20  21  22  24  25  27  28  29 0
 3-21G
 ****
 32  34  39  40  41  42  43  44  45  46  47  48  49 0
 3-21G
 ****


