%nproc=1
%NoSave
%Mem=1900MB
#P OB98/GEN NMR

erre ene a

0 1
  C     -274.571    -258.676      43.789
  O     -274.516    -260.087      43.903
  P     -274.509    -260.966      42.563
  C     -276.359    -261.696      40.847
  O     -276.024    -260.993      42.029
  C     -277.881    -261.681      40.635
  O     -278.329    -260.299      40.532
  C     -278.355    -262.415      39.371
  O     -279.616    -263.022      39.679
  C     -278.535    -261.278      38.376
  O     -279.417    -261.619      37.313
  C     -279.061    -260.170      39.297
  N     -278.898    -258.824      38.745
  C     -279.565    -257.779      39.382
  O     -280.289    -257.921      40.362
  N     -279.384    -256.540      38.824
  C     -278.684    -256.258      37.685
  O     -278.571    -255.131      37.219
  C     -278.048    -257.409      37.030
  C     -278.175    -258.618      37.586
  O     -274.279    -262.435      43.155
  O     -273.499    -260.520      41.559
  H     -274.717    -262.571      44.012
  H     -279.636    -260.805      36.827
  H     -279.827    -255.757      39.288
  H     -277.490    -257.232      36.115
  H     -277.717    -259.485      37.121
  H     -280.120    -260.346      39.530
  H     -277.566    -261.015      37.942
  H     -277.647    -263.177      39.038
  H     -278.356    -262.113      41.528
  H     -276.027    -262.735      40.931
  H     -275.849    -261.242      39.994
  P     -279.727    -264.625      39.587
  C     -279.668    -266.225      37.512
  O     -280.076    -264.992      38.066
  O     -281.131    -264.852      40.337
  O     -278.603    -265.374      40.219
  H     -281.829    -264.263      40.018
  H     -280.269    -266.429      36.621
  H     -279.803    -267.049      38.216
  H     -278.615    -266.161      37.220
  H     -274.568    -258.239      44.766
  H     -275.466    -258.394      43.274
  H     -273.720    -258.329      43.241

 3  4  5  6  7  8  9  10  11  12  13  24  28  29  30  31  32 0
 6-311+G(2d,p)
 ****
 33  34 0
 6-311+G(2d,p)
 ****
 1  2  14  15  16  17  18  19  20  21  22  23  25  26  27 0
 3-21G
 ****
 35  36  37  38  39  40  41  42  43  44  45 0
 3-21G
 ****


