%nproc=1
%NoSave
%Mem=1900MB
#P OB98/GEN NMR

erre ene a

0 1
  C       38.591      45.292     -52.400
  O       37.537      45.267     -51.441
  P       36.339      46.318     -51.594
  C       37.461      48.545     -50.708
  O       36.929      47.790     -51.774
  C       37.650      50.001     -51.162
  O       38.275      50.042     -52.463
  C       36.339      50.774     -51.272
  O       35.956      51.348     -50.036
  C       36.666      51.797     -52.340
  O       37.448      52.869     -51.783
  C       37.522      50.953     -53.314
  N       36.823      50.163     -54.350
  C       37.559      49.399     -55.253
  O       38.785      49.330     -55.262
  N       36.831      48.684     -56.168
  C       35.478      48.518     -56.170
  O       34.885      47.817     -56.979
  C       34.759      49.224     -55.106
  C       35.446      50.007     -54.271
  O       35.672      46.347     -50.143
  O       35.346      45.971     -52.660
  H       38.168      52.464     -51.268
  H       34.760      46.004     -50.180
  H       37.348      48.183     -56.874
  H       33.688      49.083     -55.040
  H       34.921      50.536     -53.478
  H       38.247      51.587     -53.838
  H       35.764      52.255     -52.738
  H       35.549      50.124     -51.660
  H       38.318      50.501     -50.450
  H       38.415      48.131     -50.376
  H       36.781      48.501     -49.851
  P       34.758      50.703     -49.193
  C       33.063      52.215     -50.383
  O       33.445      50.883     -50.100
  O       34.633      51.158     -47.778
  O       35.034      49.126     -49.295
  H       35.523      48.807     -48.503
  H       32.263      52.199     -51.129
  H       33.909      52.780     -50.783
  H       32.690      52.696     -49.475
  H       39.308      44.535     -52.161
  H       39.066      46.251     -52.384
  H       38.190      45.109     -53.375

 3  4  5  6  7  8  9  10  11  12  13  23  28  29  30  31  32 0
 6-311+G(2d,p)
 ****
 33  34 0
 6-311+G(2d,p)
 ****
 1  2  14  15  16  17  18  19  20  21  22  24  25  26  27 0
 3-21G
 ****
 35  36  37  38  39  40  41  42  43  44  45 0
 3-21G
 ****


