%nproc=1
%NoSave
%Mem=1900MB
#P OB98/GEN NMR

erre ene a

0 1
  C     -135.031     -69.585     112.465
  O     -133.728     -70.139     112.424
  P     -132.680     -69.547     111.367
  C     -132.348     -69.663     108.791
  O     -133.046     -70.150     109.927
  C     -133.065     -70.082     107.505
  O     -134.401     -69.496     107.485
  C     -132.351     -69.639     106.219
  O     -132.584     -70.651     105.227
  C     -133.106     -68.378     105.844
  O     -132.945     -68.014     104.480
  C     -134.528     -68.787     106.234
  N     -135.436     -67.646     106.351
  C     -136.200     -67.320     105.234
  O     -136.151     -67.930     104.166
  N     -136.992     -66.210     105.355
  C     -137.030     -65.364     106.425
  O     -137.676     -64.322     106.426
  C     -136.202     -65.758     107.577
  C     -135.458     -66.862     107.488
  O     -131.313     -70.286     111.755
  O     -132.538     -68.061     111.396
  H     -133.347     -67.133     104.365
  H     -130.747     -69.697     112.286
  H     -137.561     -65.967     104.561
  H     -136.224     -65.119     108.451
  H     -134.822     -67.167     108.315
  H     -134.931     -69.500     105.502
  H     -132.746     -67.543     106.457
  H     -131.276     -69.473     106.347
  H     -133.190     -71.173     107.516
  H     -131.337     -70.074     108.787
  H     -132.269     -68.571     108.848
  P     -131.363     -71.051     104.261
  C     -130.391     -69.910     102.120
  O     -131.044     -69.766     103.364
  O     -132.098     -72.056     103.252
  O     -130.205     -71.668     104.982
  H     -132.969     -71.733     102.969
  H     -130.676     -70.840     101.620
  H     -129.310     -69.903     102.276
  H     -130.662     -69.069     101.477
  H     -135.607     -70.083     113.217
  H     -135.502     -69.711     111.513
  H     -134.968     -68.542     112.697

 3  4  5  6  7  8  9  10  11  12  13  23  28  29  30  31  32 0
 6-311+G(2d,p)
 ****
 33  34 0
 6-311+G(2d,p)
 ****
 1  2  14  15  16  17  18  19  20  21  22  24  25  26 0
 3-21G
 ****
 27  35  36  37  38  39  40  41  42  43  44  45 0
 3-21G
 ****


