%nproc=1
%NoSave
%Mem=1900MB
#P OB98/GEN NMR

erre ene a

0 1
  C     -554.154     694.576     466.580
  O     -553.180     694.912     465.587
  P     -551.960     693.893     465.394
  C     -552.284     693.203     462.902
  O     -551.513     693.939     463.851
  C     -552.705     694.113     461.745
  O     -553.777     695.005     462.128
  C     -551.586     695.015     461.249
  O     -550.645     694.290     460.483
  C     -552.377     696.059     460.474
  O     -552.743     695.542     459.170
  C     -553.646     696.203     461.342
  N     -554.638     701.214     461.722
  C     -554.781     700.337     460.694
  N     -554.492     699.029     460.672
  C     -554.010     698.616     461.863
  C     -553.811     699.391     462.994
  C     -554.135     700.755     462.894
  N     -553.972     701.650     463.935
  N     -553.297     698.630     464.019
  C     -553.176     697.418     463.519
  N     -553.599     697.363     462.218
  O     -552.656     692.457     465.545
  O     -550.857     694.085     466.380
  H     -553.239     696.255     458.728
  H     -552.383     692.049     466.388
  H     -555.185     700.751     459.785
  H     -552.772     696.556     464.044
  H     -554.555     696.300     460.725
  H     -551.834     696.997     460.310
  H     -551.076     695.499     462.104
  H     -553.058     693.470     460.931
  H     -553.170     692.774     463.387
  H     -554.159     702.626     463.742
  H     -553.524     701.336     464.780
  H     -551.693     692.358     462.536
  P     -549.228     694.974     460.190
  C     -547.761     693.009     460.963
  O     -548.252     693.732     459.850
  O     -548.762     695.394     461.658
  O     -549.243     696.073     459.186
  H     -548.906     694.669     462.307
  H     -547.150     692.177     460.598
  H     -548.579     692.623     461.560
  H     -547.122     693.662     461.589
  H     -554.910     695.333     466.608
  H     -553.680     694.510     467.537
  H     -554.601     693.634     466.337

 3  4  5  6  7  8  9  10  11  12  22  25  29  30  31  32 0
 6-311+G(2d,p)
 ****
 33  36  37 0
 6-311+G(2d,p)
 ****
 1  2  13  14  15  16  17  18  19  20  21  23  24  26 0
 3-21G
 ****
 27  28  34  35  38  39  40  41  42  43  44  45  46  47  48 0
 3-21G
 ****


