%nproc=1
%NoSave
%Mem=1900MB
#P OB98/GEN NMR

erre ene a

0 1
  C      -17.626    -373.266    -508.257
  O      -17.750    -373.752    -506.932
  H      -16.787    -373.774    -508.744
  H      -17.430    -372.191    -508.247
  H      -18.541    -373.471    -508.823
  P      -18.868    -373.048    -506.019
  C      -19.983    -375.389    -505.711
  O      -20.126    -374.039    -506.132
  C      -20.356    -375.512    -504.237
  O      -21.719    -375.091    -504.022
  C      -20.280    -376.938    -503.690
  O      -18.949    -377.344    -503.397
  C      -21.117    -376.793    -502.437
  O      -20.357    -376.118    -501.416
  C      -22.281    -375.902    -502.952
  N      -23.429    -376.678    -503.428
  C      -24.397    -377.020    -502.476
  O      -24.258    -376.689    -501.294
  N      -25.479    -377.767    -502.875
  C      -25.595    -378.119    -504.117
  N      -26.684    -378.873    -504.453
  C      -24.610    -377.768    -505.155
  C      -23.569    -377.056    -504.746
  O      -19.337    -371.792    -506.895
  O      -18.455    -372.707    -504.623
  H      -20.140    -375.235    -501.764
  H      -20.116    -371.358    -506.470
  H      -24.746    -378.103    -506.176
  H      -22.799    -376.764    -505.457
  H      -22.622    -375.218    -502.161
  H      -21.435    -377.753    -502.014
  H      -20.768    -377.650    -504.360
  H      -19.709    -374.832    -503.662
  H      -27.315    -379.154    -503.707
  H      -18.939    -375.691    -505.867
  H      -26.768    -379.346    -505.348
  H      -20.628    -376.039    -506.307
  P      -18.647    -378.922    -503.358
  C      -18.167    -378.993    -505.920
  O      -18.944    -379.488    -504.837
  O      -19.854    -379.503    -502.487
  O      -17.308    -379.296    -502.789
  H      -19.553    -380.224    -501.903
  H      -18.482    -379.462    -506.829
  H      -17.134    -379.210    -505.746
  H      -18.300    -377.934    -506.000

 6  7  8  9  10  11  12  13  14  15  16  26  30  31  32  33  35 0
 6-311+G(2d,p)
 ****
 37  38 0
 6-311+G(2d,p)
 ****
 1  2  3  4  5  17  18  19  20  21  22  23  24  25 0
 3-21G
 ****
 27  28  29  34  36  39  40  41  42  43  44  45  46 0
 3-21G
 ****


