%nproc=1
%NoSave
%Mem=1900MB
#P OB98/GEN NMR

erre ene a

0 1
  C     -263.287    -797.744    -228.624
  O     -262.001    -798.336    -228.554
  H     -263.712    -797.947    -229.612
  H     -263.210    -796.668    -228.487
  H     -263.945    -798.174    -227.856
  P     -261.232    -798.235    -227.148
  C     -259.434    -799.737    -226.030
  O     -259.977    -799.236    -227.243
  C     -258.405    -800.833    -226.312
  O     -259.102    -802.069    -226.660
  C     -257.430    -800.512    -227.460
  O     -256.148    -801.069    -227.138
  C     -258.012    -801.294    -228.627
  O     -257.045    -801.555    -229.651
  C     -258.503    -802.543    -227.891
  N     -259.293    -804.525    -232.454
  C     -258.196    -803.849    -231.940
  N     -257.146    -803.664    -232.780
  N     -258.137    -803.379    -230.729
  C     -259.242    -803.666    -229.981
  C     -260.396    -804.326    -230.368
  C     -260.452    -804.799    -231.743
  O     -261.405    -805.392    -232.255
  N     -261.294    -804.379    -229.338
  C     -260.702    -803.756    -228.343
  N     -259.454    -803.305    -228.683
  O     -262.234    -798.977    -226.144
  O     -260.910    -796.850    -226.690
  H     -256.754    -800.687    -230.009
  H     -262.825    -798.333    -225.716
  H     -259.290    -804.847    -233.405
  H     -261.119    -803.606    -227.348
  H     -257.686    -803.222    -227.629
  H     -258.849    -800.749    -229.075
  H     -257.103    -804.032    -233.720
  H     -257.322    -799.439    -227.675
  H     -256.321    -803.201    -232.412
  H     -257.845    -801.034    -225.382
  H     -260.244    -800.159    -225.428
  H     -258.965    -798.911    -225.469
  P     -255.109    -800.158    -226.326
  C     -252.702    -800.424    -225.368
  O     -253.747    -800.991    -226.148
  O     -255.721    -800.143    -224.844
  O     -254.953    -798.772    -226.874
  H     -255.457    -799.319    -224.375
  H     -251.869    -801.095    -225.346
  H     -253.052    -800.256    -224.371
  H     -252.399    -799.494    -225.801

 6  7  8  9  10  11  12  13  14  15  26  29  33  34 0
 6-311+G(2d,p)
 ****
 36  38  39  40  41 0
 6-311+G(2d,p)
 ****
 1  2  3  4  5  16  17  18  19  20  21  22  23  24  25 0
 3-21G
 ****
 27  28  30  31  32  35  37  42  43  44  45  46  47 0
 3-21G
 ****
 48  49 0
 3-21G
 ****


