%nproc=1
%NoSave
%Mem=1900MB
#P OB98/GEN NMR

erre ene a

0 1
  C      122.124     -56.533       7.188
  O      122.493     -57.748       7.805
  H      121.784     -56.743       6.169
  H      122.985     -55.860       7.137
  H      121.309     -56.058       7.740
  P      123.030     -57.660       9.316
  C      125.566     -57.644       8.753
  O      124.452     -56.909       9.243
  C      126.873     -57.022       9.240
  O      127.980     -57.896       8.875
  C      127.165     -55.635       8.644
  O      127.773     -54.819       9.651
  C      128.188     -55.936       7.567
  O      128.979     -54.795       7.240
  C      128.964     -57.077       8.223
  N      133.401     -57.318       5.843
  C      132.949     -56.436       6.812
  N      133.804     -55.472       7.209
  N      131.753     -56.503       7.347
  C      131.010     -57.533       6.872
  C      131.338     -58.464       5.914
  C      132.656     -58.369       5.318
  O      133.104     -59.103       4.439
  N      130.296     -59.330       5.689
  C      129.342     -58.931       6.512
  N      129.731     -57.847       7.256
  O      123.431     -59.172       9.658
  O      122.071     -57.095      10.306
  H      129.522     -55.022       6.453
  H      123.319     -59.358      10.612
  H      134.324     -57.214       5.459
  H      128.360     -59.380       6.605
  H      129.677     -56.717       8.979
  H      127.687     -56.281       6.652
  H      134.754     -55.380       6.866
  H      126.277     -55.137       8.250
  H      133.497     -54.821       7.926
  H      126.853     -56.981      10.338
  H      125.540     -57.637       7.654
  H      125.491     -58.681       9.104
  P      126.823     -53.807      10.463
  C      126.854     -51.834       8.770
  O      126.080     -52.841       9.411
  O      127.873     -52.836      11.189
  O      125.933     -54.482      11.455
  H      127.891     -53.025      12.144
  H      126.231     -51.275       8.104
  H      127.647     -52.292       8.216
  H      127.267     -51.178       9.508

 6  7  8  9  10  11  12  13  14  15  26  29  33  34 0
 6-311+G(2d,p)
 ****
 36  38  39  40  41 0
 6-311+G(2d,p)
 ****
 1  2  3  4  5  16  17  18  19  20  21  22  23  24  25 0
 3-21G
 ****
 27  28  30  31  32  35  37  42  43  44  45  46  47 0
 3-21G
 ****
 48  49 0
 3-21G
 ****


