%nproc=1
%NoSave
%Mem=1900MB
#P OB98/GEN NMR

erre ene a

0 1
  C      448.865      68.320     735.349
  O      448.051      68.751     736.426
  H      449.918      68.526     735.600
  H      448.609      68.875     734.438
  H      448.746      67.247     735.181
  P      446.490      68.381     736.342
  C      445.753      70.248     734.645
  O      445.708      69.737     735.973
  C      445.280      71.699     734.627
  O      443.866      71.786     734.935
  C      445.940      72.574     735.677
  O      447.292      72.857     735.383
  C      445.027      73.797     735.623
  O      445.348      74.628     734.501
  C      443.633      73.131     735.443
  N      442.860      73.116     736.678
  C      441.818      74.068     736.749
  O      441.605      74.821     735.812
  N      441.083      74.122     737.903
  C      441.335      73.309     738.873
  N      440.561      73.420     740.005
  C      442.392      72.284     738.830
  C      443.111      72.245     737.708
  O      446.104      68.155     737.881
  O      446.155      67.234     735.442
  H      444.681      75.345     734.494
  H      446.344      68.901     738.450
  H      442.554      71.608     739.670
  H      443.915      71.535     737.599
  H      443.062      73.667     734.674
  H      445.126      74.423     736.513
  H      445.833      72.124     736.669
  H      445.433      72.096     733.613
  H      439.852      74.147     740.004
  H      445.159      69.630     733.965
  H      440.681      72.865     740.835
  H      446.803      70.193     734.308
  P      448.457      72.399     736.386
  C      448.525      74.782     737.385
  O      449.275      73.727     736.764
  O      449.303      71.254     735.906
  O      447.671      72.094     737.754
  H      447.179      72.851     738.127
  H      449.173      75.609     737.588
  H      448.102      74.427     738.301
  H      447.741      75.097     736.728

 6  7  8  9  10  11  12  13  14  15  16  26  30  31  32  33  35 0
 6-311+G(2d,p)
 ****
 37  38 0
 6-311+G(2d,p)
 ****
 1  2  3  4  5  17  18  19  20  21  22  23  24  25 0
 3-21G
 ****
 27  28  29  34  36  39  40  41  42  43  44  45  46 0
 3-21G
 ****


