%nproc=1
%NoSave
%Mem=1900MB
#P OB98/GEN NMR

erre ene a

0 1
  C      -57.763    -160.133      94.272
  O      -58.612    -160.380      93.170
  P      -59.041    -159.203      92.176
  C      -60.552    -157.134      92.237
  O      -60.195    -158.347      92.885
  C      -60.632    -155.975      93.229
  O      -59.309    -155.703      93.760
  C      -61.174    -154.671      92.628
  O      -61.990    -154.050      93.627
  C      -59.917    -153.857      92.385
  O      -60.180    -152.464      92.306
  C      -59.059    -154.295      93.577
  N      -57.643    -154.028      93.372
  C      -57.164    -152.791      93.810
  O      -57.947    -151.935      94.223
  N      -55.813    -152.557      93.755
  C      -55.042    -153.402      93.142
  N      -53.703    -153.165      93.168
  C      -55.557    -154.599      92.447
  C      -56.845    -154.872      92.636
  O      -59.360    -159.636      90.782
  O      -57.791    -158.201      92.189
  H      -57.504    -158.036      91.270
  H      -59.357    -151.973      92.511
  H      -54.897    -155.203      91.843
  H      -57.311    -155.744      92.192
  H      -59.386    -153.787      94.494
  H      -59.451    -154.171      91.443
  H      -61.770    -154.835      91.725
  H      -61.261    -156.290      94.072
  H      -53.383    -152.357      93.689
  H      -61.529    -157.272      91.771
  H      -53.019    -153.903      93.006
  H      -59.832    -156.911      91.441
  P      -62.966    -152.855      93.179
  C      -62.777    -150.282      92.895
  O      -62.151    -151.481      93.301
  O      -63.963    -152.764      94.437
  O      -63.751    -153.069      91.927
  H      -64.809    -152.380      94.143
  H      -62.056    -149.465      92.983
  H      -63.633    -150.063      93.539
  H      -63.103    -150.351      91.854
  H      -57.599    -161.045      94.807
  H      -58.221    -159.416      94.921
  H      -56.827    -159.751      93.922

 3  4  5  6  7  8  9  10  11  12  13  24  27  28  29  30  32 0
 6-311+G(2d,p)
 ****
 34  35 0
 6-311+G(2d,p)
 ****
 1  2  14  15  16  17  18  19  20  21  22  23  25  26 0
 3-21G
 ****
 31  33  36  37  38  39  40  41  42  43  44  45  46 0
 3-21G
 ****


