%nproc=1
%NoSave
%Mem=1900MB
#P OB98/GEN NMR

erre ene a

0 1
  C     -188.461     856.362     160.427
  O     -188.081     857.719     160.545
  H     -188.841     856.193     159.419
  H     -189.252     856.128     161.145
  H     -187.593     855.711     160.593
  P     -187.508     858.181     161.972
  C     -188.968     860.313     162.219
  O     -187.670     859.781     162.028
  C     -188.905     861.829     162.337
  O     -188.124     862.223     163.497
  C     -188.297     862.543     161.143
  O     -189.251     862.727     160.112
  C     -187.853     863.857     161.765
  O     -188.950     864.785     161.891
  C     -187.362     863.409     163.151
  N     -182.730     865.408     162.801
  C     -183.966     866.007     162.753
  N     -183.975     867.345     162.506
  N     -185.103     865.364     162.899
  C     -184.943     864.033     163.085
  C     -183.768     863.322     163.176
  C     -182.522     864.045     163.043
  O     -181.392     863.578     163.146
  N     -184.010     861.995     163.401
  C     -185.325     861.897     163.414
  N     -185.937     863.113     163.209
  O     -185.927     857.973     161.833
  O     -188.058     857.444     163.154
  H     -189.419     864.856     161.038
  H     -185.556     857.748     162.706
  H     -181.894     865.946     162.688
  H     -185.889     860.984     163.560
  H     -187.564     864.154     163.933
  H     -187.094     864.363     161.168
  H     -183.199     867.809     162.064
  H     -187.414     862.004     160.778
  H     -184.883     867.796     162.454
  H     -189.936     862.190     162.516
  H     -189.403     859.892     163.132
  H     -189.595     860.031     161.355
  P     -188.769     862.479     158.596
  C     -190.028     864.343     157.287
  O     -189.972     862.978     157.656
  O     -188.820     860.884     158.442
  O     -187.413     863.030     158.266
  H     -188.292     860.606     157.667
  H     -190.882     864.510     156.665
  H     -189.140     864.604     156.750
  H     -190.104     864.947     158.167

 6  7  8  9  10  11  12  13  14  15  26  29  33  34 0
 6-311+G(2d,p)
 ****
 36  38  39  40  41 0
 6-311+G(2d,p)
 ****
 1  2  3  4  5  16  17  18  19  20  21  22  23  24  25 0
 3-21G
 ****
 27  28  30  31  32  35  37  42  43  44  45  46  47 0
 3-21G
 ****
 48  49 0
 3-21G
 ****


