%nproc=1
%NoSave
%Mem=1900MB
#P OB98/GEN NMR

erre ene a

0 1
  C     1132.566      61.539    -498.992
  O     1132.517      60.139    -498.767
  H     1133.182      62.000    -498.217
  H     1131.562      61.962    -498.935
  H     1133.012      61.760    -499.968
  P     1131.825      59.206    -499.865
  C     1133.966      57.803    -500.200
  O     1132.998      58.646    -500.809
  C     1135.068      57.453    -501.203
  O     1134.518      56.589    -502.238
  C     1135.703      58.669    -501.907
  O     1137.067      58.337    -502.207
  C     1134.859      58.734    -503.174
  O     1135.385      59.599    -504.135
  C     1134.803      57.223    -503.500
  N     1133.818      56.854    -504.512
  C     1134.050      57.264    -505.823
  O     1135.020      57.912    -506.185
  N     1133.095      56.891    -506.747
  C     1131.974      56.157    -506.475
  O     1131.180      55.824    -507.342
  C     1131.787      55.754    -505.079
  C     1132.695      56.116    -504.165
  O     1130.670      59.808    -500.591
  O     1131.388      57.905    -499.032
  H     1130.434      57.945    -498.845
  H     1134.869      59.518    -504.961
  H     1133.254      57.176    -507.690
  H     1130.897      55.176    -504.827
  H     1132.598      55.826    -503.135
  H     1135.798      56.884    -503.819
  H     1133.865      59.115    -502.938
  H     1135.676      59.575    -501.304
  H     1135.844      56.852    -500.676
  H     1133.468      56.878    -499.869
  H     1134.395      58.304    -499.328
  P     1138.320      59.171    -501.673
  C     1139.637      57.137    -500.724
  O     1138.970      58.355    -500.420
  O     1138.012      60.599    -501.357
  O     1139.440      59.056    -502.828
  H     1140.028      59.822    -502.768
  H     1140.016      56.703    -499.822
  H     1140.448      57.332    -501.394
  H     1138.949      56.459    -501.185

 6  7  8  9  10  11  12  13  14  15  16  27  31  32  33  34  35 0
 6-311+G(2d,p)
 ****
 36  37 0
 6-311+G(2d,p)
 ****
 1  2  3  4  5  17  18  19  20  21  22  23  24  25 0
 3-21G
 ****
 26  28  29  30  38  39  40  41  42  43  44  45 0
 3-21G
 ****


