%nproc=1
%NoSave
%Mem=1900MB
#P OB98/GEN NMR

erre ene a

0 1
  C       57.867    -370.853    -118.119
  O       58.877    -370.016    -118.677
  P       58.922    -369.878    -120.278
  C       58.844    -371.621    -122.199
  O       59.145    -371.370    -120.831
  C       58.556    -373.101    -122.418
  O       57.569    -373.547    -121.473
  C       57.985    -373.432    -123.791
  O       58.997    -373.519    -124.782
  C       57.360    -374.796    -123.522
  O       58.376    -375.815    -123.591
  C       56.844    -374.646    -122.079
  N       52.183    -376.499    -122.786
  C       53.416    -377.103    -122.961
  N       53.400    -378.396    -123.361
  N       54.559    -376.497    -122.773
  C       54.421    -375.223    -122.340
  C       53.254    -374.517    -122.120
  C       51.998    -375.185    -122.387
  O       50.882    -374.676    -122.308
  N       53.519    -373.249    -121.665
  C       54.834    -373.202    -121.568
  N       55.427    -374.365    -121.990
  O       60.333    -369.172    -120.538
  O       57.795    -369.110    -120.879
  H       58.826    -375.711    -124.456
  H       60.313    -368.690    -121.384
  H       51.338    -377.020    -122.928
  H       55.391    -372.349    -121.200
  H       57.062    -375.541    -121.487
  H       56.589    -375.065    -124.255
  H       52.560    -378.952    -123.396
  H       57.201    -372.721    -124.076
  H       54.291    -378.866    -123.458
  H       59.481    -373.662    -122.245
  H       59.706    -371.331    -122.813
  H       57.990    -371.008    -122.494
  P       58.507    -373.462    -126.311
  C       56.899    -375.055    -127.584
  O       57.927    -374.924    -126.625
  O       59.881    -373.405    -127.133
  O       57.613    -372.313    -126.632
  H       59.741    -372.973    -127.998
  H       57.028    -374.352    -128.412
  H       55.931    -374.880    -127.108
  H       56.917    -376.072    -127.980
  H       57.953    -370.853    -117.052
  H       57.987    -371.851    -118.487
  H       56.903    -370.484    -118.399

 3  4  5  6  7  8  9  10  11  12  23  26  30  31  33  0
 6-311+G(2d,p)
 ****
 35  36  37  38 0
 6-311+G(2d,p)
 ****
 1  2  13  14  15  16  17  18  19  20  21  22  24  25  27  28  29 0
 3-21G
 ****
 32  34  39  40  41  42  43  44  45  46  47  48  49 0
 3-21G
 ****


