%nproc=1
%NoSave
%Mem=1900MB
#P OB98/GEN NMR

erre ene a

0 1
  C      138.133     226.489     171.888
  O      137.399     226.295     170.690
  P      138.179     225.657     169.439
  C      137.051     223.317     169.481
  O      138.235     224.074     169.701
  C      137.376     221.904     168.993
  O      136.138     221.181     168.788
  C      138.172     221.861     167.687
  O      139.091     220.773     167.770
  C      137.119     221.540     166.643
  O      137.691     220.923     165.490
  C      136.162     220.648     167.448
  N      134.824     220.606     166.865
  C      134.717     220.104     165.566
  O      135.731     219.797     164.938
  N      133.474     220.013     164.992
  C      132.442     220.484     165.619
  N      131.232     220.367     165.010
  C      132.530     221.134     166.941
  C      133.735     221.142     167.509
  O      139.689     226.124     169.682
  O      137.662     226.078     168.104
  H      138.203     220.139     165.788
  H      140.151     226.259     168.834
  H      131.644     221.543     167.405
  H      133.888     221.576     168.487
  H      136.548     219.621     167.507
  H      136.613     222.460     166.327
  H      138.715     222.790     167.489
  H      137.926     221.386     169.788
  H      131.199     219.932     164.097
  H      136.449     223.812     168.714
  H      130.372     220.706     165.423
  H      136.465     223.283     170.404
  P      140.354     220.789     166.781
  C      141.660     222.400     168.294
  O      141.057     222.209     167.030
  O      139.644     221.028     165.363
  O      141.242     219.591     166.746
  H      140.311     220.994     164.653
  H      142.213     223.343     168.281
  H      142.357     221.587     168.515
  H      140.890     222.456     169.070
  H      137.495     226.918     172.632
  H      138.954     227.148     171.700
  H      138.504     225.547     172.236

 3  4  5  6  7  8  9  10  11  12  13  21  23  27  28  29  30  32 0
 6-311+G(2d,p)
 ****
 34  35 0
 6-311+G(2d,p)
 ****
 1  2  14  15  16  17  18  19  20  22  24  25  26 0
 3-21G
 ****
 31  33  36  37  38  39  40  41  42  43  44  45  46 0
 3-21G
 ****


