%nproc=1
%NoSave
%Mem=1900MB
#P OB98/GEN NMR

erre ene a

0 1
  C      151.922    -110.405     393.913
  O      151.984    -109.148     394.556
  H      151.077    -110.430     393.221
  H      152.846    -110.558     393.348
  H      151.824    -111.205     394.651
  P      150.701    -108.732     395.427
  C      149.614    -106.844     394.032
  O      150.435    -107.172     395.144
  C      149.516    -105.325     393.886
  O      149.216    -104.763     395.190
  C      150.800    -104.661     393.362
  O      150.502    -103.786     392.266
  C      151.289    -103.827     394.530
  O      151.915    -102.615     394.124
  C      150.011    -103.576     395.320
  N      151.360     -99.904     398.592
  C      150.806     -99.845     397.361
  N      150.382    -100.858     396.581
  C      150.544    -102.038     397.207
  C      151.071    -102.256     398.469
  C      151.512    -101.119     399.168
  N      152.127    -101.185     400.399
  N      151.085    -103.606     398.769
  C      150.616    -104.197     397.689
  N      150.290    -103.290     396.713
  O      151.256    -108.754     396.930
  O      149.524    -109.632     395.266
  H      151.218    -102.036     393.762
  H      150.756    -109.417     397.441
  H      150.696     -98.848     396.943
  H      150.535    -105.267     397.542
  H      149.434    -102.739     394.907
  H      152.010    -104.415     395.113
  H      151.553    -105.392     393.048
  H      148.667    -105.090     393.231
  H      148.609    -107.252     394.186
  H      152.516    -100.337     400.775
  H      152.343    -102.096     400.781
  H      150.039    -107.289     393.128
  P      150.836    -104.349     390.796
  C      152.453    -102.502     389.945
  O      151.165    -103.095     389.844
  O      149.413    -104.870     390.276
  O      151.852    -105.441     390.787
  H      149.476    -105.811     390.024
  H      152.525    -101.686     389.256
  H      153.201    -103.231     389.713
  H      152.603    -102.142     390.941

 6  7  8  9  10  11  12  13  14  15  25  28  32  33  34  35 0
 6-311+G(2d,p)
 ****
 36  39  40 0
 6-311+G(2d,p)
 ****
 1  2  3  4  5  16  17  18  19  20  21  22  23  24 0
 3-21G
 ****
 26  27  29  30  31  37  38  41  42  43  44  45  46  47  48 0
 3-21G
 ****


