%nproc=1
%NoSave
%Mem=1900MB
#P OB98/GEN NMR

erre ene a

0 1
  C       17.497     252.004     313.144
  O       16.749     251.616     312.015
  H       17.910     253.000     312.961
  H       18.325     251.313     313.317
  H       16.857     252.051     314.030
  P       16.184     250.114     311.936
  C       18.535     249.110     311.714
  O       17.370     249.195     312.527
  C       19.655     248.345     312.418
  O       20.690     248.001     311.460
  C       20.320     249.124     313.559
  O       20.445     248.278     314.705
  C       21.696     249.469     313.005
  O       22.651     249.696     314.036
  C       21.955     248.262     312.095
  N       23.012     248.505     311.116
  C       24.309     248.641     311.619
  O       24.509     248.594     312.838
  N       25.338     248.869     310.744
  C       25.089     249.000     309.480
  N       26.151     249.235     308.663
  C       23.731     248.911     308.910
  C       22.750     248.656     309.773
  O       15.687     249.705     310.588
  O       15.069     250.041     313.078
  H       23.549     249.557     313.664
  H       14.460     249.282     312.897
  H       23.573     249.036     307.848
  H       21.719     248.562     309.445
  H       22.231     247.380     312.688
  H       21.628     250.382     312.397
  H       19.773     250.018     313.845
  H       19.244     247.388     312.775
  H       27.070     249.290     309.092
  H       18.866     250.125     311.469
  H       26.077     249.361     307.665
  H       18.270     248.585     310.788
  P       19.295     248.422     315.817
  C       20.546     250.123     317.316
  O       19.427     249.882     316.477
  O       19.778     247.430     316.973
  O       17.929     248.072     315.316
  H       19.287     246.587     316.922
  H       20.507     251.127     317.683
  H       21.448     249.983     316.757
  H       20.527     249.441     318.140

 6  7  8  9  10  11  12  13  14  15  16  26  30  31  32  33  35 0
 6-311+G(2d,p)
 ****
 37  38 0
 6-311+G(2d,p)
 ****
 1  2  3  4  5  17  18  19  20  21  22  23  24  25 0
 3-21G
 ****
 27  28  29  34  36  39  40  41  42  43  44  45  46 0
 3-21G
 ****


