%nproc=1
%NoSave
%Mem=1900MB
#P OB98/GEN NMR

erre ene a

0 1
  C     -364.149     289.960     207.881
  O     -363.961     288.914     206.951
  H     -363.408     289.853     208.680
  H     -365.146     289.903     208.323
  H     -364.009     290.935     207.404
  P     -364.832     288.912     205.605
  C     -367.073     288.736     206.869
  O     -366.191     288.124     205.935
  C     -367.952     287.676     207.527
  O     -368.837     288.290     208.494
  C     -368.857     286.933     206.549
  O     -368.119     285.989     205.800
  C     -369.880     286.346     207.509
  O     -369.363     285.172     208.160
  C     -370.049     287.502     208.528
  N     -371.224     288.331     208.255
  C     -372.460     287.741     208.501
  O     -372.590     286.593     208.920
  N     -373.555     288.510     208.206
  C     -373.532     289.743     207.615
  O     -374.531     290.298     207.167
  C     -372.198     290.344     207.446
  C     -371.123     289.614     207.756
  O     -364.122     288.457     204.373
  O     -365.322     290.433     205.472
  H     -364.768     290.893     204.815
  H     -368.977     284.613     207.457
  H     -374.459     288.078     208.336
  H     -372.140     291.346     207.041
  H     -370.128     290.027     207.613
  H     -370.143     287.101     209.548
  H     -370.804     286.053     207.005
  H     -369.362     287.647     205.886
  H     -367.297     286.976     208.061
  H     -367.706     289.455     206.330
  H     -366.484     289.276     207.619
  P     -368.100     286.031     204.200
  C     -370.650     285.776     204.115
  O     -369.402     285.264     203.663
  O     -366.818     285.588     203.573
  O     -368.410     287.562     203.842
  H     -367.714     287.896     203.244
  H     -371.446     285.194     203.699
  H     -370.752     286.794     203.803
  H     -370.691     285.725     205.183

 6  7  8  9  10  11  12  13  14  15  16  27  31  32  33  34  35 0
 6-311+G(2d,p)
 ****
 36  37 0
 6-311+G(2d,p)
 ****
 1  2  3  4  5  17  18  19  20  21  22  23  24  25 0
 3-21G
 ****
 26  28  29  30  38  39  40  41  42  43  44  45 0
 3-21G
 ****


