%nproc=1
%NoSave
%Mem=1900MB
#P OB98/GEN NMR

erre ene a

0 1
  C       30.087     435.580      14.562
  O       29.604     436.379      15.621
  H       29.709     434.564      14.692
  H       31.180     435.555      14.587
  H       29.749     435.959      13.595
  P       29.735     437.970      15.510
  C       28.763     439.081      13.392
  O       28.482     438.489      14.649
  C       27.538     439.834      12.857
  O       26.413     438.920      12.802
  C       27.135     440.982      13.791
  O       26.483     442.036      13.091
  C       26.138     440.318      14.726
  O       25.245     441.245      15.343
  C       25.449     439.331      13.786
  N       21.526     437.336      16.362
  C       21.760     438.652      16.006
  N       20.821     439.553      16.382
  N       22.822     439.048      15.359
  C       23.709     438.055      15.109
  C       23.602     436.721      15.435
  C       22.401     436.287      16.117
  O       22.157     435.139      16.477
  N       24.707     436.015      15.024
  C       25.482     436.920      14.460
  N       24.912     438.169      14.465
  O       30.959     438.180      14.498
  O       29.961     438.693      16.804
  H       24.682     441.619      14.644
  H       31.353     439.062      14.618
  H       20.678     437.079      16.831
  H       26.454     436.722      14.021
  H       24.617     439.816      13.257
  H       26.695     439.825      15.526
  H       20.095     439.316      17.044
  H       27.978     441.390      14.341
  H       21.119     440.531      16.411
  H       27.723     440.173      11.832
  H       29.045     438.271      12.713
  H       29.626     439.749      13.469
  P       27.043     443.527      13.256
  C       29.658     443.954      13.263
  O       28.474     443.653      12.555
  O       27.372     443.641      14.815
  O       26.096     444.597      12.804
  H       26.796     444.306      15.237
  H       30.483     443.984      12.582
  H       29.833     443.200      14.002
  H       29.555     444.906      13.741

 6  7  8  9  10  11  12  13  14  15  26  29  33  34 0
 6-311+G(2d,p)
 ****
 36  38  39  40  41 0
 6-311+G(2d,p)
 ****
 1  2  3  4  5  16  17  18  19  20  21  22  23  24  25 0
 3-21G
 ****
 27  28  30  31  32  35  37  42  43  44  45  46  47 0
 3-21G
 ****
 48  49 0
 3-21G
 ****


