%nproc=1
%NoSave
%Mem=1900MB
#P OB98/GEN NMR

erre ene a

0 1
  C      182.984     176.429     495.770
  O      182.992     177.787     496.161
  H      183.285     176.363     494.721
  H      181.980     176.007     495.872
  H      183.692     175.853     496.373
  P      182.577     178.145     497.668
  C      180.260     179.081     497.000
  O      180.977     178.074     497.711
  C      178.990     179.450     497.754
  O      178.044     178.357     497.714
  C      179.214     179.775     499.230
  O      179.678     181.107     499.379
  C      177.807     179.567     499.775
  O      176.981     180.690     499.428
  C      177.360     178.317     498.993
  N      175.754     173.596     499.913
  C      175.120     174.634     499.252
  N      173.867     174.393     498.816
  N      175.663     175.811     499.061
  C      176.893     175.927     499.618
  C      177.614     174.973     500.303
  C      177.025     173.662     500.461
  O      177.557     172.704     501.021
  N      178.799     175.478     500.773
  C      178.813     176.725     500.335
  N      177.673     177.052     499.642
  O      183.140     179.417     498.227
  O      183.030     176.865     498.511
  H      176.103     180.525     499.818
  H      183.930     176.975     498.865
  H      175.272     172.718     500.046
  H      179.624     177.428     500.494
  H      176.281     178.317     498.793
  H      177.781     179.457     500.858
  H      173.309     173.630     499.181
  H      179.883     179.052     499.708
  H      173.369     175.158     498.379
  H      178.521     180.293     497.230
  H      180.019     178.671     496.012
  H      180.886     179.970     496.874
  P      180.766     181.487     500.499
  C      178.740     181.702     502.091
  O      180.044     181.166     501.894
  O      181.329     182.861     500.387
  O      181.862     180.330     500.403
  H      182.581     180.518     499.749
  H      178.378     181.414     503.056
  H      178.082     181.326     501.336
  H      178.780     182.769     502.029

 6  7  8  9  10  11  12  13  14  15  26  29  33  34 0
 6-311+G(2d,p)
 ****
 36  38  39  40  41 0
 6-311+G(2d,p)
 ****
 1  2  3  4  5  16  17  18  19  20  21  22  23  24  25 0
 3-21G
 ****
 27  28  30  31  32  35  37  42  43  44  45  46  47 0
 3-21G
 ****
 48  49 0
 3-21G
 ****


