%nproc=1
%NoSave
%Mem=1900MB
#P OB98/GEN NMR

erre ene a

0 1
  C      -59.543    -318.850     307.178
  O      -59.656    -319.700     308.326
  P      -58.288    -320.304     308.916
  C      -58.593    -319.506     311.363
  O      -58.498    -320.613     310.478
  C      -59.424    -319.842     312.610
  O      -60.822    -320.037     312.263
  C      -58.954    -321.108     313.334
  O      -59.179    -320.908     314.735
  C      -59.916    -322.168     312.831
  O      -59.965    -323.286     313.717
  C      -61.216    -321.347     312.733
  N      -62.214    -321.958     311.859
  C      -63.483    -322.186     312.397
  O      -63.704    -321.940     313.589
  N      -64.462    -322.721     311.599
  C      -64.181    -323.055     310.373
  N      -65.191    -323.590     309.633
  C      -62.837    -322.892     309.779
  C      -61.918    -322.341     310.567
  O      -57.291    -319.051     308.904
  O      -57.744    -321.444     308.110
  H      -60.154    -322.950     314.621
  H      -56.448    -319.299     308.478
  H      -62.643    -323.200     308.762
  H      -60.906    -322.173     310.219
  H      -61.668    -321.225     313.724
  H      -59.608    -322.522     311.839
  H      -57.900    -321.346     313.159
  H      -59.371    -318.987     313.295
  H      -66.100    -323.680     310.076
  H      -59.050    -318.658     310.847
  H      -65.082    -323.885     308.675
  H      -57.582    -319.181     311.641
  P      -58.024    -320.211     315.595
  C      -59.758    -319.022     317.079
  O      -58.687    -319.952     317.035
  O      -58.012    -318.726     314.979
  O      -56.656    -320.817     315.583
  H      -57.290    -318.208     315.383
  H      -60.191    -319.036     318.081
  H      -60.532    -319.300     316.351
  H      -59.388    -318.017     316.869
  H      -60.516    -318.515     306.885
  H      -59.096    -319.395     306.373
  H      -58.933    -318.005     307.419

 3  4  5  6  7  8  9  10  11  12  13  21  23  27  28  29  30  32 0
 6-311+G(2d,p)
 ****
 34  35 0
 6-311+G(2d,p)
 ****
 1  2  14  15  16  17  18  19  20  22  24  25  26 0
 3-21G
 ****
 31  33  36  37  38  39  40  41  42  43  44  45  46 0
 3-21G
 ****


