%nproc=1
%NoSave
%Mem=1900MB
#P OB98/GEN NMR

erre ene a

0 1
  C        4.425    -509.122    -759.914
  O        4.924    -508.774    -761.214
  P        5.129    -509.956    -762.279
  C        3.640    -509.291    -764.312
  O        3.784    -510.090    -763.138
  C        3.018    -510.113    -765.441
  O        3.949    -511.086    -765.965
  C        1.773    -510.895    -765.022
  O        0.607    -510.091    -765.040
  C        1.706    -511.945    -766.116
  O        1.105    -511.367    -767.299
  C        3.183    -512.260    -766.364
  N        2.542    -517.232    -765.659
  C        1.892    -516.362    -766.511
  N        0.927    -516.898    -767.303
  N        2.153    -515.084    -766.588
  C        3.149    -514.692    -765.759
  C        3.862    -515.453    -764.867
  C        3.556    -516.867    -764.782
  O        4.084    -517.685    -764.031
  N        4.792    -514.700    -764.194
  C        4.642    -513.488    -764.684
  N        3.646    -513.424    -765.626
  O        5.098    -511.269    -761.362
  O        6.394    -509.859    -763.070
  H        0.252    -510.987    -767.015
  H        5.618    -511.979    -761.792
  H        2.293    -518.202    -765.632
  H        5.235    -512.623    -764.392
  H        3.404    -512.444    -767.430
  H        1.085    -512.805    -765.833
  H        0.712    -517.884    -767.328
  H        1.934    -511.383    -764.043
  H        0.470    -516.279    -767.953
  H        2.748    -509.425    -766.253
  H        4.612    -508.900    -764.624
  H        3.037    -508.413    -764.069
  P       -0.067    -509.712    -763.635
  C        0.439    -507.160    -763.758
  O        0.701    -508.399    -763.115
  O        0.457    -510.876    -762.664
  O       -1.554    -509.633    -763.656
  H       -0.209    -511.059    -761.975
  H        0.911    -506.369    -763.176
  H       -0.633    -506.973    -763.812
  H        0.864    -507.173    -764.766
  H        4.340    -508.239    -759.316
  H        5.100    -509.807    -759.445
  H        3.463    -509.580    -760.012

 3  4  5  6  7  8  9  10  11  12  23  26  30  31 0
 6-311+G(2d,p)
 ****
 33  35  36  37  38 0
 6-311+G(2d,p)
 ****
 1  2  13  14  15  16  17  18  19  20  21  22  24  25 0
 3-21G
 ****
 27  28  29  32  34  39  40  41  42  43  44  45  46  47  48  49 0
 3-21G
 ****


