%nproc=1
%NoSave
%Mem=1900MB
#P OB98/GEN NMR

erre ene a

0 1
  C     -376.451    -516.322    -573.575
  O     -377.587    -515.491    -573.765
  P     -377.449    -514.246    -574.760
  C     -380.040    -514.177    -574.924
  O     -378.843    -513.452    -574.698
  C     -381.217    -513.473    -574.249
  O     -381.320    -512.109    -574.688
  C     -382.573    -514.089    -574.578
  O     -382.845    -515.239    -573.781
  C     -383.507    -512.953    -574.204
  O     -383.707    -512.917    -572.779
  C     -382.716    -511.723    -574.661
  N     -386.453    -509.525    -577.282
  C     -386.293    -509.689    -575.920
  N     -387.327    -509.258    -575.146
  N     -385.250    -510.224    -575.352
  C     -384.303    -510.622    -576.242
  C     -384.338    -510.526    -577.625
  C     -385.512    -509.934    -578.232
  O     -385.726    -509.824    -579.434
  N     -383.202    -511.026    -578.196
  C     -382.475    -511.430    -577.167
  N     -383.119    -511.249    -575.968
  O     -377.473    -514.925    -576.205
  O     -376.220    -513.410    -574.554
  H     -383.935    -513.825    -572.503
  H     -377.132    -514.298    -576.879
  H     -387.277    -509.110    -577.661
  H     -381.489    -511.882    -577.244
  H     -382.809    -510.883    -573.952
  H     -384.502    -513.040    -574.659
  H     -388.191    -508.893    -575.523
  H     -382.676    -514.301    -575.644
  H     -387.265    -509.410    -574.144
  H     -381.035    -513.466    -573.168
  H     -379.933    -515.188    -574.516
  H     -380.210    -514.262    -576.010
  P     -383.569    -516.475    -574.508
  C     -383.013    -517.992    -572.470
  O     -384.005    -517.467    -573.332
  O     -382.352    -517.232    -575.225
  O     -384.629    -516.081    -575.472
  H     -382.662    -517.719    -576.003
  H     -383.501    -518.412    -571.584
  H     -382.328    -517.194    -572.147
  H     -382.453    -518.777    -572.976
  H     -376.693    -517.106    -572.888
  H     -375.645    -515.739    -573.181
  H     -376.159    -516.747    -574.513

 3  4  5  6  7  8  9  10  11  12  23  26  30  31 0
 6-311+G(2d,p)
 ****
 33  35  36  37  38 0
 6-311+G(2d,p)
 ****
 1  2  13  14  15  16  17  18  19  20  21  22  24  25 0
 3-21G
 ****
 27  28  29  32  34  39  40  41  42  43  44  45  46  47  48  49 0
 3-21G
 ****


