%nproc=1
%NoSave
%Mem=1900MB
#P OB98/GEN NMR

erre ene a

0 1
  C     -474.064     382.197    -302.063
  O     -475.410     382.208    -302.510
  P     -475.961     383.571    -303.154
  C     -478.174     383.939    -301.838
  O     -477.553     383.491    -303.039
  C     -479.677     383.693    -301.883
  O     -480.265     384.463    -302.950
  C     -480.069     382.250    -302.150
  O     -479.925     381.470    -300.980
  C     -481.508     382.408    -302.621
  O     -482.413     382.427    -301.502
  C     -481.478     383.781    -303.337
  N     -481.588     383.658    -304.780
  C     -482.894     383.550    -305.285
  O     -483.856     383.538    -304.516
  N     -483.060     383.416    -306.645
  C     -482.028     383.389    -307.420
  N     -482.255     383.256    -308.759
  C     -480.636     383.479    -306.930
  C     -480.495     383.609    -305.607
  O     -475.681     383.378    -304.716
  O     -475.330     384.816    -302.616
  H     -482.058     383.112    -300.892
  H     -475.583     384.232    -305.163
  H     -479.810     383.453    -307.620
  H     -479.509     383.682    -305.159
  H     -482.313     384.408    -302.983
  H     -481.818     381.584    -303.271
  H     -479.455     381.835    -302.964
  H     -480.114     384.045    -300.930
  H     -483.219     383.191    -309.068
  H     -477.989     385.006    -301.709
  H     -481.512     383.253    -309.447
  H     -477.718     383.407    -300.987
  P     -478.919     380.223    -301.035
  C     -480.275     378.096    -300.585
  O     -479.536     379.157    -300.016
  O     -477.653     380.770    -300.213
  O     -478.537     379.718    -302.380
  H     -476.918     380.132    -300.263
  H     -480.509     377.359    -299.807
  H     -479.704     377.604    -301.375
  H     -481.218     378.481    -300.998
  H     -473.830     381.234    -301.659
  H     -473.933     382.942    -301.306
  H     -473.413     382.406    -302.886

 3  4  5  6  7  8  9  10  11  12  13  21  23  27  28  29  30  32 0
 6-311+G(2d,p)
 ****
 34  35 0
 6-311+G(2d,p)
 ****
 1  2  14  15  16  17  18  19  20  22  24  25  26 0
 3-21G
 ****
 31  33  36  37  38  39  40  41  42  43  44  45  46 0
 3-21G
 ****


