%nproc=1
%NoSave
%Mem=1900MB
#P OB98/GEN NMR

erre ene a

0 1
  C     -428.554     303.412     353.625
  O     -429.551     304.239     353.009
  P     -430.299     303.811     351.656
  C     -432.679     303.189     352.422
  O     -431.858     304.169     351.794
  C     -433.903     303.822     353.097
  O     -433.524     304.505     354.306
  C     -434.632     304.851     352.237
  O     -435.451     304.211     351.277
  C     -435.385     305.647     353.303
  O     -436.588     304.952     353.689
  C     -434.377     305.654     354.461
  N     -432.204     309.086     357.573
  C     -432.897     307.955     357.822
  N     -433.452     307.094     356.940
  C     -433.206     307.491     355.674
  C     -432.511     308.623     355.267
  C     -431.999     309.445     356.287
  N     -431.302     310.605     356.028
  N     -432.488     308.709     353.895
  C     -433.133     307.639     353.477
  N     -433.584     306.869     354.516
  O     -430.031     302.408     351.224
  O     -429.776     304.853     350.558
  H     -436.358     304.009     353.774
  H     -429.805     304.438     349.675
  H     -433.033     307.704     358.872
  H     -433.298     307.373     352.440
  H     -434.879     305.546     355.432
  H     -435.676     306.642     352.962
  H     -433.907     305.507     351.744
  H     -434.584     303.009     353.382
  H     -432.079     302.666     353.174
  H     -430.994     311.161     356.810
  H     -431.186     310.905     355.072
  H     -433.006     302.466     351.665
  P     -435.346     304.619     349.734
  C     -433.397     303.085     349.079
  O     -434.785     303.346     348.944
  O     -434.639     305.903     349.450
  O     -436.875     304.683     349.252
  H     -436.961     305.333     348.532
  H     -432.834     303.745     348.417
  H     -433.205     302.045     348.797
  H     -433.073     303.239     350.114
  H     -428.191     303.890     354.511
  H     -427.743     303.263     352.943
  H     -428.984     302.466     353.881

 3  4  5  6  7  8  9  10  11  12  22  25  29  30  31  32 0
 6-311+G(2d,p)
 ****
 33  36  37 0
 6-311+G(2d,p)
 ****
 1  2  13  14  15  16  17  18  19  20  21  23  24  26 0
 3-21G
 ****
 27  28  34  35  38  39  40  41  42  43  44  45  46  47  48 0
 3-21G
 ****


