%nproc=1
%NoSave
%Mem=1900MB
#P OB98/GEN NMR

erre ene a

0 1
  C       50.127    1145.041    -245.701
  O       49.383    1144.236    -246.607
  H       49.793    1144.860    -244.677
  H       51.184    1144.776    -245.791
  H       50.008    1146.098    -245.948
  P       47.801    1144.493    -246.656
  C       45.918    1143.593    -245.096
  O       47.235    1144.116    -245.202
  C       45.803    1142.681    -243.880
  O       46.561    1141.466    -244.098
  C       46.328    1143.281    -242.579
  O       45.389    1144.171    -241.981
  C       46.520    1142.011    -241.753
  O       45.244    1141.581    -241.216
  C       47.020    1141.008    -242.793
  N       51.089    1138.885    -240.508
  C       49.754    1138.760    -240.283
  N       48.734    1139.332    -240.953
  C       49.199    1140.102    -241.957
  C       50.515    1140.321    -242.317
  C       51.496    1139.663    -241.540
  N       52.852    1139.849    -241.733
  N       50.595    1141.190    -243.396
  C       49.345    1141.515    -243.655
  N       48.469    1140.876    -242.818
  O       47.269    1143.297    -247.587
  O       47.387    1145.829    -247.180
  H       44.631    1141.518    -241.975
  H       47.168    1143.623    -248.499
  H       49.474    1138.101    -239.469
  H       49.046    1142.200    -244.436
  H       46.598    1140.011    -242.643
  H       47.191    1142.164    -240.897
  H       47.309    1143.758    -242.726
  H       44.738    1142.392    -243.779
  H       45.676    1143.025    -246.006
  H       53.402    1139.749    -240.878
  H       53.087    1140.649    -242.323
  H       45.213    1144.433    -245.013
  P       45.961    1145.309    -241.009
  C       45.455    1146.006    -238.573
  O       45.416    1144.961    -239.535
  O       45.091    1146.592    -241.438
  O       47.421    1145.567    -241.121
  H       45.707    1147.327    -241.690
  H       45.068    1145.648    -237.642
  H       44.860    1146.827    -238.914
  H       46.466    1146.329    -238.438

 6  7  8  9  10  11  12  13  14  15  25  28  32  33  34  35 0
 6-311+G(2d,p)
 ****
 36  39  40 0
 6-311+G(2d,p)
 ****
 1  2  3  4  5  16  17  18  19  20  21  22  23  24 0
 3-21G
 ****
 26  27  29  30  31  37  38  41  42  43  44  45  46  47  48 0
 3-21G
 ****


