%nproc=1
%NoSave
%Mem=1900MB
#P OB98/GEN NMR

erre ene a

0 1
  C      256.745    -639.304     750.959
  O      255.843    -639.689     749.945
  H      256.580    -638.246     751.190
  H      257.774    -639.431     750.614
  H      256.578    -639.881     751.872
  P      255.668    -641.248     749.599
  C      258.135    -641.723     748.992
  O      257.079    -641.940     749.933
  C      259.137    -642.885     749.061
  O      260.263    -642.556     748.186
  C      259.696    -643.139     750.479
  O      259.931    -644.543     750.632
  C      261.018    -642.386     750.423
  O      261.907    -642.824     751.414
  C      261.455    -642.693     748.985
  N      262.520    -641.790     748.551
  C      263.779    -641.991     749.097
  O      264.036    -642.873     749.915
  N      264.747    -641.094     748.737
  C      264.548    -639.974     747.979
  O      265.431    -639.157     747.749
  C      263.180    -639.773     747.466
  C      262.248    -640.683     747.773
  O      255.109    -641.562     748.253
  O      254.741    -641.800     750.787
  H      262.778    -642.393     751.284
  H      254.297    -642.630     750.520
  H      265.669    -641.234     749.113
  H      262.983    -638.884     746.882
  H      261.220    -640.555     747.431
  H      261.810    -643.734     748.890
  H      260.845    -641.307     750.563
  H      259.030    -642.774     751.270
  H      258.661    -643.784     748.652
  H      258.631    -640.784     749.264
  H      257.719    -641.647     747.986
  P      258.729    -645.578     750.884
  C      259.073    -645.920     753.410
  O      258.183    -645.465     752.406
  O      259.027    -646.991     750.450
  O      257.507    -644.994     750.012
  H      257.087    -645.717     749.519
  H      258.617    -645.802     754.371
  H      259.977    -645.349     753.371
  H      259.297    -646.953     753.246

 6  7  8  9  10  11  12  13  14  15  16  26  31  32  33  34  35 0
 6-311+G(2d,p)
 ****
 36  37 0
 6-311+G(2d,p)
 ****
 1  2  3  4  5  17  18  19  20  21  22  23  24  25 0
 3-21G
 ****
 27  28  29  30  38  39  40  41  42  43  44  45 0
 3-21G
 ****


