%nproc=1
%NoSave
%Mem=1900MB
#P OB98/GEN NMR

erre ene a

0 1
  C      290.142     194.471     210.920
  O      291.162     194.479     209.947
  H      290.490     193.902     211.787
  H      289.252     193.981     210.515
  H      289.889     195.483     211.244
  P      291.119     195.586     208.797
  C      293.253     196.738     209.680
  O      291.884     196.894     209.332
  C      294.161     197.616     208.818
  O      294.083     197.190     207.441
  C      293.749     199.091     208.849
  O      294.312     199.835     209.916
  C      294.266     199.589     207.501
  O      295.630     200.031     207.595
  C      294.163     198.351     206.603
  N      292.425     197.945     201.812
  C      293.732     197.988     202.259
  N      294.686     197.955     201.302
  N      294.059     198.071     203.523
  C      292.997     198.195     204.351
  C      291.661     198.188     204.022
  C      291.306     198.019     202.629
  O      290.165     197.958     202.184
  N      290.868     198.380     205.129
  C      291.728     198.591     206.105
  N      293.029     198.409     205.698
  O      289.586     196.061     208.794
  O      291.528     195.118     207.433
  H      295.686     200.687     208.316
  H      289.328     196.327     207.893
  H      292.235     197.849     200.830
  H      291.466     198.830     207.129
  H      295.059     198.234     205.981
  H      293.681     200.444     207.153
  H      294.490     197.977     200.315
  H      292.660     199.188     208.854
  H      295.647     198.175     201.572
  H      295.201     197.483     209.137
  H      293.496     195.686     209.525
  H      293.403     196.957     210.741
  P      293.731     201.271     210.310
  C      291.796     200.216     211.740
  O      292.198     201.101     210.716
  O      293.660     202.030     208.904
  O      294.528     202.032     211.317
  H      294.431     202.614     208.788
  H      290.732     200.256     211.849
  H      292.260     200.502     212.661
  H      292.091     199.219     211.486

 6  7  8  9  10  11  12  13  14  15  26  29  33  34 0
 6-311+G(2d,p)
 ****
 36  38  39  40  41 0
 6-311+G(2d,p)
 ****
 1  2  3  4  5  16  17  18  19  20  21  22  23  24  25 0
 3-21G
 ****
 27  28  30  31  32  35  37  42  43  44  45  46  47 0
 3-21G
 ****
 48  49 0
 3-21G
 ****


