%nproc=1
%NoSave
%Mem=1900MB
#P OB98/GEN NMR

erre ene a

0 1
  C     -121.538     105.181      -4.356
  O     -122.180     105.141      -5.614
  H     -121.983     104.420      -3.710
  H     -121.681     106.158      -3.891
  H     -120.469     104.971      -4.457
  P     -121.583     106.019      -6.816
  C     -120.559     103.885      -7.839
  O     -120.323     105.215      -7.395
  C     -120.561     103.840      -9.366
  O     -119.258     104.190      -9.879
  C     -120.877     102.465      -9.945
  O     -122.262     102.180      -9.851
  C     -120.351     102.628     -11.365
  O     -121.295     103.335     -12.182
  C     -119.080     103.479     -11.125
  N     -117.851     102.686     -11.103
  C     -117.320     102.332     -12.339
  O     -117.857     102.624     -13.409
  N     -116.155     101.611     -12.306
  C     -115.532     101.152     -11.181
  O     -114.513     100.461     -11.209
  C     -116.155     101.526      -9.905
  C     -117.268     102.263      -9.923
  O     -121.321     107.456      -6.503
  O     -122.675     105.857      -7.977
  H     -122.101     102.785     -12.218
  H     -123.246     106.649      -8.003
  H     -115.761     101.335     -13.193
  H     -115.689     101.173      -8.992
  H     -117.744     102.545      -8.990
  H     -118.981     104.239     -11.909
  H     -120.160     101.673     -11.855
  H     -120.285     101.694      -9.437
  H     -121.280     104.588      -9.727
  H     -121.532     103.556      -7.462
  H     -119.778     103.232      -7.433
  P     -122.802     100.684     -10.005
  C     -122.428     100.370      -7.489
  O     -122.205      99.825      -8.784
  O     -122.604     100.072     -11.353
  O     -124.357     100.796      -9.643
  H     -124.893     100.723     -10.459
  H     -121.994      99.727      -6.752
  H     -123.480     100.455      -7.314
  H     -121.977     101.338      -7.427

 6  7  8  9  10  11  12  13  14  15  16  26  31  32  33  34  35 0
 6-311+G(2d,p)
 ****
 36  37 0
 6-311+G(2d,p)
 ****
 1  2  3  4  5  17  18  19  20  21  22  23  24  25 0
 3-21G
 ****
 27  28  29  30  38  39  40  41  42  43  44  45 0
 3-21G
 ****


