%nproc=1
%NoSave
%Mem=1900MB
#P OB98/GEN NMR

erre ene a

0 1
  C      637.322       4.153    -708.533
  O      636.480       5.047    -707.846
  H      636.732       3.635    -709.298
  H      637.725       3.411    -707.833
  H      638.146       4.679    -709.027
  P      637.148       6.185    -706.928
  C      635.445       5.452    -705.125
  O      636.089       6.535    -705.766
  C      634.188       5.908    -704.367
  O      634.534       7.018    -703.510
  C      633.132       6.417    -705.356
  O      631.803       6.248    -704.852
  C      633.434       7.908    -705.441
  O      632.328       8.682    -705.904
  C      633.867       8.203    -704.006
  N      634.327      13.273    -704.162
  C      633.235      12.492    -704.473
  N      632.130      13.137    -704.897
  N      633.235      11.188    -704.378
  C      634.447      10.674    -704.027
  C      635.595      11.342    -703.721
  C      635.575      12.785    -703.781
  O      636.519      13.549    -703.537
  N      636.627      10.478    -703.412
  C      636.090       9.284    -703.536
  N      634.750       9.346    -703.891
  O      637.091       7.493    -707.854
  O      638.537       5.904    -706.452
  H      631.653       8.657    -705.223
  H      637.786       8.129    -707.582
  H      634.265      14.283    -704.230
  H      636.602       8.347    -703.365
  H      632.994       8.402    -703.383
  H      634.241       8.043    -706.177
  H      632.133      14.126    -705.143
  H      633.214       5.930    -706.327
  H      631.427      12.583    -705.391
  H      633.815       5.112    -703.723
  H      636.169       5.008    -704.423
  H      635.193       4.680    -705.860
  P      631.313       4.741    -704.521
  C      628.758       5.282    -704.720
  O      629.841       4.840    -703.919
  O      632.247       4.325    -703.283
  O      631.469       3.795    -705.677
  H      632.928       3.699    -703.580
  H      627.860       5.279    -704.139
  H      628.643       4.626    -705.558
  H      628.954       6.275    -705.068

 6  7  8  9  10  11  12  13  14  15  26  29  33  34 0
 6-311+G(2d,p)
 ****
 36  38  39  40  41 0
 6-311+G(2d,p)
 ****
 1  2  3  4  5  16  17  18  19  20  21  22  23  24  25 0
 3-21G
 ****
 27  28  30  31  32  35  37  42  43  44  45  46  47 0
 3-21G
 ****
 48  49 0
 3-21G
 ****


