%nproc=1
%NoSave
%Mem=1900MB
#P OB98/GEN NMR

erre ene a

0 1
  C      246.587    -271.731     142.983
  O      245.645    -272.501     142.233
  P      244.483    -273.290     142.998
  C      243.837    -271.471     144.721
  O      243.430    -272.239     143.594
  C      242.696    -270.553     145.170
  O      242.298    -269.645     144.115
  C      241.425    -271.316     145.523
  O      241.461    -272.107     146.692
  C      240.365    -270.229     145.450
  O      240.305    -269.472     146.656
  C      240.893    -269.359     144.285
  N      240.152    -269.571     143.041
  C      239.006    -268.800     142.873
  O      238.591    -268.014     143.721
  N      238.325    -268.992     141.701
  C      238.651    -269.884     140.722
  O      237.992    -270.033     139.700
  C      239.859    -270.687     140.965
  C      240.545    -270.498     142.096
  O      244.934    -274.346     143.948
  O      243.653    -273.953     141.789
  H      241.211    -269.175     146.861
  H      243.406    -274.858     142.057
  H      237.495    -268.437     141.559
  H      240.146    -271.408     140.212
  H      241.439    -271.079     142.295
  H      240.819    -268.293     144.540
  H      239.368    -270.650     145.287
  H      241.215    -272.017     144.701
  H      243.045    -269.949     146.009
  H      244.720    -270.882     144.467
  H      244.139    -272.152     145.524
  P      241.824    -273.670     146.687
  C      243.936    -275.123     146.310
  O      243.392    -273.826     146.399
  O      240.900    -274.583     145.955
  O      241.746    -274.016     148.256
  H      241.431    -274.935     148.353
  H      245.012    -275.039     146.127
  H      243.483    -275.674     145.481
  H      243.783    -275.667     147.247
  H      247.287    -271.275     142.315
  H      247.108    -272.370     143.664
  H      246.070    -270.971     143.531

 3  4  5  6  7  8  9  10  11  12  13  23  28  29  30  31  32 0
 6-311+G(2d,p)
 ****
 33  34 0
 6-311+G(2d,p)
 ****
 1  2  14  15  16  17  18  19  20  21  22  24  25  26  27 0
 3-21G
 ****
 35  36  37  38  39  40  41  42  43  44  45 0
 3-21G
 ****


