%nproc=1
%NoSave
%Mem=1900MB
#P OB98/GEN NMR

erre ene a

0 1
  C       -5.008     262.517    -124.977
  O       -4.458     263.826    -125.179
  P       -3.811     264.674    -123.980
  C       -6.133     265.631    -123.408
  O       -4.763     265.926    -123.662
  C       -6.889     266.855    -122.884
  O       -6.431     267.214    -121.565
  C       -6.734     268.109    -123.740
  O       -7.568     268.043    -124.879
  C       -7.096     269.201    -122.737
  O       -8.524     269.324    -122.623
  C       -6.502     268.646    -121.436
  N       -3.918     271.851    -118.402
  C       -5.220     271.494    -118.438
  N       -5.835     270.637    -119.281
  C       -4.950     270.105    -120.142
  C       -3.594     270.377    -120.229
  C       -3.074     271.300    -119.304
  N       -1.751     271.673    -119.279
  N       -3.016     269.660    -121.255
  C       -4.004     268.954    -121.768
  N       -5.191     269.189    -121.130
  O       -2.376     265.033    -124.188
  O       -3.979     263.743    -122.687
  H       -8.855     268.508    -122.205
  H       -3.271     263.940    -122.047
  H       -5.856     271.961    -117.689
  H       -3.909     268.261    -122.594
  H       -7.151     268.851    -120.576
  H       -6.705     270.182    -123.021
  H       -5.687     268.228    -124.042
  H       -7.949     266.583    -122.797
  H       -6.181     264.825    -122.666
  H       -1.463     272.365    -118.607
  H       -1.124     271.302    -119.979
  H       -6.592     265.280    -124.339
  P       -7.094     267.235    -126.178
  C       -6.904     269.368    -127.590
  O       -7.522     268.102    -127.457
  O       -7.489     265.798    -126.223
  O       -5.499     267.397    -126.163
  H       -5.093     266.617    -126.582
  H       -7.403     270.086    -126.935
  H       -7.005     269.700    -128.626
  H       -5.842     269.314    -127.336
  H       -5.382     262.140    -125.906
  H       -5.806     262.571    -124.267
  H       -4.246     261.863    -124.608

 3  4  5  6  7  8  9  10  11  12  22  25  29  30  31  32 0
 6-311+G(2d,p)
 ****
 33  36  37 0
 6-311+G(2d,p)
 ****
 1  2  13  14  15  16  17  18  19  20  21  23  24  26 0
 3-21G
 ****
 27  28  34  35  38  39  40  41  42  43  44  45  46  47  48 0
 3-21G
 ****


