%nproc=1
%NoSave
%Mem=1900MB
#P OB98/GEN NMR

erre ene a

0 1
  C      193.069     218.645     -13.722
  O      191.848     219.195     -14.190
  P      190.581     218.213     -14.296
  C      190.872     218.715     -16.828
  O      189.980     218.382     -15.773
  C      190.231     219.716     -17.791
  O      191.260     220.247     -18.673
  C      189.125     219.126     -18.682
  O      188.151     220.159     -18.870
  C      189.877     218.836     -19.969
  O      189.039     218.642     -21.097
  C      190.797     220.050     -20.027
  N      192.375     220.493     -24.871
  C      191.210     220.825     -24.268
  N      190.866     220.686     -22.970
  C      191.878     220.147     -22.266
  C      193.111     219.741     -22.745
  C      193.349     219.934     -24.117
  N      194.536     219.584     -24.729
  N      193.878     219.206     -21.732
  C      193.120     219.287     -20.658
  N      191.911     219.869     -20.928
  O      189.492     218.932     -13.372
  O      190.838     216.802     -13.866
  H      188.492     219.439     -21.246
  H      188.973     218.279     -12.864
  H      190.455     221.264     -24.916
  H      193.392     218.934     -19.673
  H      190.261     220.959     -20.333
  H      190.456     217.915     -19.842
  H      188.635     218.249     -18.245
  H      189.837     220.555     -17.205
  H      191.121     217.810     -17.390
  H      194.533     219.576     -25.740
  H      195.166     218.985     -24.207
  H      191.800     219.114     -16.406
  P      186.676     219.954     -18.274
  C      185.956     221.191     -20.410
  O      185.801     221.085     -19.006
  O      186.850     220.579     -16.811
  O      186.152     218.559     -18.299
  H      187.255     221.465     -16.844
  H      185.237     221.924     -20.785
  H      185.761     220.225     -20.887
  H      186.966     221.531     -20.649
  H      193.820     219.407     -13.703
  H      193.378     217.856     -14.375
  H      192.930     218.257     -12.735

 3  4  5  6  7  8  9  10  11  12  22  25  29  30  31  32 0
 6-311+G(2d,p)
 ****
 33  36  37 0
 6-311+G(2d,p)
 ****
 1  2  13  14  15  16  17  18  19  20  21  23  24  26 0
 3-21G
 ****
 27  28  34  35  38  39  40  41  42  43  44  45  46  47  48 0
 3-21G
 ****


