%nproc=1
%NoSave
%Mem=1900MB
#P OB98/GEN NMR

erre ene a

0 1
  C      -51.378    -214.615    -581.693
  O      -52.224    -214.376    -580.586
  H      -51.944    -215.177    -582.445
  H      -50.518    -215.215    -581.387
  H      -51.045    -213.676    -582.141
  P      -51.690    -213.446    -579.393
  C      -51.500    -215.556    -577.918
  O      -51.982    -214.223    -578.017
  C      -52.434    -216.406    -577.047
  O      -52.403    -215.887    -575.692
  C      -53.894    -216.401    -577.518
  O      -54.459    -217.695    -577.312
  C      -54.557    -215.396    -576.600
  O      -55.954    -215.643    -576.443
  C      -53.763    -215.580    -575.308
  N      -55.603    -213.600    -571.035
  C      -55.691    -214.878    -571.531
  N      -56.389    -215.769    -570.791
  N      -55.148    -215.269    -572.657
  C      -54.454    -214.277    -573.283
  C      -54.292    -212.965    -572.893
  C      -54.921    -212.553    -571.653
  O      -54.889    -211.424    -571.174
  N      -53.544    -212.268    -573.806
  C      -53.254    -213.155    -574.745
  N      -53.799    -214.380    -574.480
  O      -52.184    -212.033    -579.427
  O      -50.098    -213.516    -579.516
  H      -56.349    -215.625    -577.345
  H      -49.737    -212.688    -579.896
  H      -56.049    -213.353    -570.170
  H      -52.664    -212.955    -575.626
  H      -54.146    -216.403    -574.693
  H      -54.432    -214.382    -577.001
  H      -56.815    -215.547    -569.904
  H      -53.985    -216.120    -578.568
  H      -56.445    -216.730    -571.116
  H      -52.036    -217.427    -577.008
  H      -50.501    -215.532    -577.470
  H      -51.427    -215.987    -578.925
  P      -54.898    -218.567    -578.586
  C      -57.281    -218.532    -577.626
  O      -56.281    -219.317    -578.260
  O      -53.832    -219.439    -579.172
  O      -55.357    -217.443    -579.643
  H      -55.124    -217.741    -580.548
  H      -58.152    -219.131    -577.459
  H      -57.534    -217.702    -578.253
  H      -56.911    -218.172    -576.689

 6  7  8  9  10  11  12  13  14  15  26  29  33  34 0
 6-311+G(2d,p)
 ****
 36  38  39  40  41 0
 6-311+G(2d,p)
 ****
 1  2  3  4  5  16  17  18  19  20  21  22  23  24  25 0
 3-21G
 ****
 27  28  30  31  32  35  37  42  43  44  45  46  47 0
 3-21G
 ****
 48  49 0
 3-21G
 ****


