%nproc=1
%NoSave
%Mem=1900MB
#P OB98/GEN NMR

erre ene a

0 1
  C       79.952     555.775    -402.482
  O       80.786     555.529    -403.601
  P       80.196     555.862    -405.060
  C       79.613     553.816    -406.609
  O       79.303     554.592    -405.467
  C       80.562     552.674    -406.227
  O       79.949     551.841    -405.226
  C       80.922     551.732    -407.377
  O       81.883     552.310    -408.244
  C       81.403     550.506    -406.612
  O       82.760     550.695    -406.175
  C       80.453     550.495    -405.397
  N       79.358     549.537    -405.532
  C       79.684     548.198    -405.318
  O       80.817     547.816    -405.041
  N       78.654     547.304    -405.467
  C       77.381     547.601    -405.855
  O       76.504     546.754    -406.015
  C       77.102     549.030    -406.089
  C       78.086     549.913    -405.925
  O       81.520     555.723    -405.944
  O       79.516     557.187    -405.129
  H       82.163     555.116    -405.543
  H       83.312     550.682    -406.984
  H       78.858     546.327    -405.301
  H       76.104     549.302    -406.414
  H       77.902     550.965    -406.106
  H       81.007     550.256    -404.484
  H       81.373     549.594    -407.216
  H       80.013     551.484    -407.945
  H       81.472     553.118    -405.796
  H       80.089     554.453    -407.359
  H       78.683     553.413    -407.027
  P       81.879     551.778    -409.769
  C       83.832     550.162    -410.419
  O       82.607     550.351    -409.743
  O       82.952     552.757    -410.442
  O       80.527     551.805    -410.413
  H       83.731     552.913    -409.880
  H       84.330     549.282    -410.004
  H       84.488     551.031    -410.293
  H       83.645     549.995    -411.483
  H       80.471     555.509    -401.585
  H       79.061     555.188    -402.565
  H       79.694     556.813    -402.451

 3  4  5  6  7  8  9  10  11  12  13  24  28  29  30  31  32 0
 6-311+G(2d,p)
 ****
 33  34 0
 6-311+G(2d,p)
 ****
 1  2  14  15  16  17  18  19  20  21  22  23  25  26  27 0
 3-21G
 ****
 35  36  37  38  39  40  41  42  43  44  45 0
 3-21G
 ****


