%nproc=1
%NoSave
%Mem=1900MB
#P OB98/GEN NMR

erre ene a

0 1
  C     -119.118      -1.094      66.967
  O     -118.123      -0.106      66.795
  H     -119.741      -0.860      67.836
  H     -119.750      -1.116      66.075
  H     -118.654      -2.076      67.095
  P     -117.154       0.154      68.047
  C     -117.950       2.619      67.988
  O     -117.707       1.469      68.784
  C     -119.290       3.243      68.360
  O     -120.353       2.286      68.177
  C     -119.402       3.695      69.812
  O     -118.756       4.941      70.031
  C     -120.913       3.815      69.952
  O     -121.353       5.066      69.392
  C     -121.420       2.647      69.093
  N     -125.147      -0.737      70.105
  C     -125.097       0.327      69.272
  N     -124.080       1.186      69.062
  C     -123.015       0.857      69.811
  C     -122.917      -0.198      70.704
  C     -124.051      -1.015      70.847
  N     -124.096      -2.087      71.711
  N     -121.667      -0.233      71.282
  C     -121.018       0.781      70.750
  N     -121.794       1.475      69.859
  O     -115.792       0.657      67.368
  O     -116.921      -1.026      68.930
  H     -122.313       5.124      69.558
  H     -115.037       0.321      67.887
  H     -125.997       0.511      68.691
  H     -119.991       1.046      70.973
  H     -122.278       2.942      68.480
  H     -121.251       3.785      70.990
  H     -119.034       2.924      70.497
  H     -119.473       4.082      67.677
  H     -117.968       2.335      66.931
  H     -124.852      -2.745      71.625
  H     -123.266      -2.293      72.258
  H     -117.138       3.337      68.149
  P     -117.398       4.929      70.891
  C     -118.604       6.507      72.559
  O     -117.832       5.325      72.384
  O     -116.629       6.233      70.372
  O     -116.568       3.700      70.747
  H     -115.668       6.127      70.507
  H     -118.817       6.643      73.599
  H     -119.521       6.418      72.015
  H     -118.054       7.349      72.195

 6  7  8  9  10  11  12  13  14  15  25  28  32  33  34  35 0
 6-311+G(2d,p)
 ****
 36  39  40 0
 6-311+G(2d,p)
 ****
 1  2  3  4  5  16  17  18  19  20  21  22  23  24 0
 3-21G
 ****
 26  27  29  30  31  37  38  41  42  43  44  45  46  47  48 0
 3-21G
 ****


