%nproc=1
%NoSave
%Mem=1900MB
#P OB98/GEN NMR

erre ene a

0 1
  C     -185.482      16.552     199.566
  O     -186.830      16.584     199.136
  H     -185.463      16.594     200.658
  H     -184.938      17.415     199.168
  H     -185.007      15.623     199.240
  P     -187.078      16.565     197.549
  C     -189.064      18.189     197.926
  O     -187.835      17.950     197.251
  C     -189.163      19.649     198.355
  O     -187.982      20.037     199.082
  C     -189.305      20.638     197.202
  O     -190.655      20.727     196.786
  C     -188.836      21.928     197.865
  O     -189.916      22.492     198.634
  C     -187.719      21.439     198.807
  N     -182.870      22.689     199.937
  C     -184.017      22.835     200.632
  N     -185.274      22.533     200.251
  C     -185.290      22.019     199.007
  C     -184.195      21.817     198.174
  C     -182.936      22.173     198.688
  N     -181.765      22.026     197.971
  N     -184.590      21.279     196.965
  C     -185.887      21.105     197.095
  N     -186.365      21.568     198.298
  O     -187.723      15.329     197.010
  O     -185.600      16.855     197.007
  H     -190.617      22.738     198.001
  H     -185.162      17.530     197.552
  H     -183.909      23.253     201.629
  H     -186.530      20.628     196.361
  H     -187.743      21.973     199.768
  H     -188.530      22.681     197.142
  H     -188.624      20.390     196.373
  H     -190.015      19.741     199.047
  H     -189.145      17.535     198.806
  H     -180.945      22.483     198.338
  H     -181.837      21.764     196.998
  H     -189.880      17.937     197.235
  P     -191.115      20.197     195.345
  C     -192.576      22.316     195.267
  O     -191.636      21.506     194.568
  O     -192.059      19.045     195.377
  O     -189.747      19.856     194.594
  H     -189.923      19.285     193.816
  H     -192.849      23.152     194.657
  H     -192.137      22.667     196.177
  H     -193.448      21.738     195.491

 6  7  8  9  10  11  12  13  14  15  25  28  32  33  34  35 0
 6-311+G(2d,p)
 ****
 36  39  40 0
 6-311+G(2d,p)
 ****
 1  2  3  4  5  16  17  18  19  20  21  22  23  24 0
 3-21G
 ****
 26  27  29  30  31  37  38  41  42  43  44  45  46  47 0
 3-21G
 ****
 48 0
 3-21G
 ****


