%nproc=1
%NoSave
%Mem=1900MB
#P OB98/GEN NMR

erre ene a

0 1
  C      -17.793     -81.274     244.934
  O      -19.103     -81.656     244.569
  H      -17.843     -80.315     245.454
  H      -17.167     -81.158     244.047
  H      -17.353     -82.013     245.609
  P      -19.306     -83.009     243.733
  C      -19.599     -81.843     241.449
  O      -18.796     -82.714     242.242
  C      -19.350     -82.106     239.960
  O      -20.308     -81.315     239.206
  C      -17.938     -81.696     239.518
  O      -17.244     -82.740     238.835
  C      -18.169     -80.388     238.772
  O      -17.190     -80.089     237.798
  C      -19.590     -80.543     238.223
  N      -20.268     -79.277     237.972
  C      -20.211     -78.765     236.677
  O      -19.642     -79.301     235.731
  N      -20.852     -77.567     236.485
  C      -21.515     -76.843     237.434
  O      -22.074     -75.781     237.201
  C      -21.521     -77.423     238.787
  C      -20.905     -78.593     238.990
  O      -20.663     -83.622     243.819
  O      -18.180     -83.993     244.309
  H      -17.528     -79.337     237.267
  H      -18.597     -84.661     244.888
  H      -20.828     -77.194     235.550
  H      -22.028     -76.869     239.572
  H      -20.891     -79.049     239.977
  H      -19.584     -81.106     237.288
  H      -18.158     -79.568     239.503
  H      -17.298     -81.501     240.389
  H      -19.554     -83.160     239.744
  H      -19.329     -80.812     241.704
  H      -20.656     -82.002     241.683
  P      -16.176     -83.722     239.502
  C      -14.146     -82.060     239.707
  O      -15.142     -82.847     240.351
  O      -15.597     -84.763     238.600
  O      -17.019     -84.485     240.644
  H      -16.637     -85.381     240.722
  H      -13.559     -81.554     240.445
  H      -14.617     -81.340     239.070
  H      -13.513     -82.694     239.122

 6  7  8  9  10  11  12  13  14  15  16  26  31  32  33  34  35 0
 6-311+G(2d,p)
 ****
 36  37 0
 6-311+G(2d,p)
 ****
 1  2  3  4  5  17  18  19  20  21  22  23  24  25 0
 3-21G
 ****
 27  28  29  30  38  39  40  41  42  43  44  45 0
 3-21G
 ****


