%nproc=1
%NoSave
%Mem=1900MB
#P OB98/GEN NMR

erre ene a

0 1
  C      119.186    -347.928    -224.271
  O      120.110    -348.325    -223.277
  H      119.337    -346.866    -224.486
  H      118.164    -348.072    -223.909
  H      119.334    -348.494    -225.195
  P      120.290    -349.888    -222.970
  C      118.928    -351.610    -221.616
  O      119.276    -350.243    -221.777
  C      118.396    -351.868    -220.205
  O      119.448    -351.544    -219.240
  C      117.160    -351.018    -219.828
  O      116.356    -351.802    -218.934
  C      117.812    -349.857    -219.105
  O      116.875    -349.097    -218.384
  C      118.877    -350.609    -218.302
  N      119.891    -349.746    -217.724
  C      119.647    -349.230    -216.450
  O      118.639    -349.482    -215.790
  N      120.610    -348.393    -215.957
  C      121.757    -348.024    -216.593
  O      122.599    -347.282    -216.090
  C      121.950    -348.575    -217.945
  C      121.019    -349.396    -218.438
  O      121.695    -350.353    -222.764
  O      119.616    -350.601    -224.234
  H      120.310    -350.857    -224.874
  H      116.433    -349.651    -217.710
  H      120.448    -348.007    -215.038
  H      122.840    -348.286    -218.483
  H      121.127    -349.823    -219.435
  H      118.411    -351.202    -217.508
  H      118.280    -349.178    -219.828
  H      116.564    -350.730    -220.701
  H      118.184    -352.945    -220.090
  H      119.823    -352.216    -221.790
  H      118.166    -351.880    -222.355
  P      114.888    -352.337    -219.302
  C      112.452    -351.501    -219.162
  O      113.791    -351.317    -218.717
  O      114.652    -353.756    -218.909
  O      114.761    -352.160    -220.892
  H      114.233    -352.908    -221.249
  H      111.821    -350.767    -218.706
  H      112.117    -352.480    -218.888
  H      112.412    -351.395    -220.226

 6  7  8  9  10  11  12  13  14  15  16  27  31  32  33  34  35 0
 6-311+G(2d,p)
 ****
 36  37 0
 6-311+G(2d,p)
 ****
 1  2  3  4  5  17  18  19  20  21  22  23  24  25 0
 3-21G
 ****
 26  28  29  30  38  39  40  41  42  43  44  45 0
 3-21G
 ****


