%nproc=1
%NoSave
%Mem=1900MB
#P OB98/GEN NMR

erre ene a

0 1
  C     -200.814     179.882      70.432
  O     -201.568     179.917      69.238
  H     -200.258     178.940      70.465
  H     -201.473     179.927      71.302
  H     -200.099     180.709      70.460
  P     -202.482     181.205      68.948
  C     -204.466     182.191      70.293
  O     -203.738     181.026      69.939
  C     -205.870     181.815      70.759
  O     -206.623     181.183      69.701
  C     -205.917     180.813      71.909
  O     -205.553     181.366      73.164
  C     -207.381     180.422      71.855
  O     -208.186     181.473      72.417
  C     -207.599     180.303      70.328
  N     -207.441     178.932      69.842
  C     -208.308     178.522      68.823
  O     -209.160     179.290      68.378
  N     -208.213     177.235      68.348
  C     -207.344     176.420      68.862
  N     -207.300     175.155      68.361
  C     -206.426     176.803      69.954
  C     -206.522     178.056      70.386
  O     -202.827     181.455      67.515
  O     -201.699     182.416      69.639
  H     -207.818     181.671      73.299
  H     -202.218     183.243      69.478
  H     -205.741     176.079      70.367
  H     -205.884     178.413      71.190
  H     -208.594     180.668      70.045
  H     -207.605     179.508      72.413
  H     -205.311     179.928      71.684
  H     -206.393     182.747      71.015
  H     -207.942     174.922      67.618
  H     -204.505     182.848      69.418
  H     -206.708     174.433      68.753
  H     -203.961     182.717      71.109
  P     -204.558     180.497      74.083
  C     -204.827     178.139      75.175
  O     -205.448     179.337      74.736
  O     -204.240     181.480      75.300
  O     -203.320     180.011      73.393
  H     -203.380     181.926      75.168
  H     -205.567     177.482      75.581
  H     -204.102     178.368      75.928
  H     -204.344     177.664      74.347

 6  7  8  9  10  11  12  13  14  15  16  26  30  31  32  33  35 0
 6-311+G(2d,p)
 ****
 37  38 0
 6-311+G(2d,p)
 ****
 1  2  3  4  5  17  18  19  20  21  22  23  24  25 0
 3-21G
 ****
 27  28  29  34  36  39  40  41  42  43  44  45  46 0
 3-21G
 ****


