%nproc=1
%NoSave
%Mem=1900MB
#P OB98/GEN NMR

erre ene a

0 1
  C     -140.246     -18.761      44.385
  O     -139.730     -19.875      43.648
  P     -140.793     -20.842      42.935
  C     -139.147     -21.226      40.955
  O     -140.007     -21.808      41.928
  C     -138.552     -22.315      40.059
  O     -137.660     -23.170      40.798
  C     -139.599     -23.245      39.472
  O     -140.258     -22.629      38.382
  C     -138.765     -24.459      39.079
  O     -138.265     -24.349      37.737
  C     -137.604     -24.427      40.101
  N     -137.641     -25.547      41.028
  C     -137.476     -26.814      40.461
  O     -137.335     -26.938      39.243
  N     -137.502     -27.910      41.286
  C     -137.702     -27.755      42.558
  N     -137.724     -28.878      43.326
  C     -137.907     -26.436      43.192
  C     -137.868     -25.385      42.376
  O     -141.589     -19.856      41.959
  O     -141.713     -21.536      43.889
  H     -137.742     -25.162      37.583
  H     -142.516     -20.144      41.870
  H     -138.078     -26.358      44.255
  H     -138.008     -24.378      42.753
  H     -136.638     -24.453      39.582
  H     -139.354     -25.379      39.123
  H     -140.324     -23.529      40.246
  H     -137.986     -21.829      39.250
  H     -137.583     -29.765      42.859
  H     -138.346     -20.669      41.444
  H     -137.878     -28.874      44.323
  H     -139.719     -20.502      40.366
  P     -141.829     -22.349      38.521
  C     -141.919     -20.207      37.108
  O     -142.236     -21.583      37.171
  O     -141.863     -21.161      39.597
  O     -142.695     -23.492      38.926
  H     -142.783     -20.958      39.843
  H     -142.053     -19.862      36.080
  H     -140.880     -20.036      37.403
  H     -142.591     -19.641      37.759
  H     -139.434     -18.204      44.805
  H     -140.880     -19.116      45.171
  H     -140.810     -18.130      43.730

 3  4  5  6  7  8  9  10  11  12  13  21  23  27  28  29  30  32 0
 6-311+G(2d,p)
 ****
 34  35 0
 6-311+G(2d,p)
 ****
 1  2  14  15  16  17  18  19  20  22  24  25  26 0
 3-21G
 ****
 31  33  36  37  38  39  40  41  42  43  44  45  46 0
 3-21G
 ****


