%nproc=1
%NoSave
%Mem=1900MB
#P OB98/GEN NMR

erre ene a

0 1
  C     -281.606     -26.537     155.463
  O     -281.518     -25.813     156.676
  H     -281.719     -25.829     154.637
  H     -282.482     -27.196     155.483
  H     -280.700     -27.127     155.306
  P     -281.307     -26.671     158.015
  C     -282.615     -28.585     159.200
  O     -282.532     -27.707     158.082
  C     -283.670     -29.659     158.940
  O     -283.302     -30.421     157.766
  C     -283.816     -30.678     160.061
  O     -284.592     -30.176     161.139
  C     -284.475     -31.836     159.326
  O     -285.893     -31.659     159.225
  C     -283.838     -31.752     157.933
  N     -282.367     -35.743     155.119
  C     -283.430     -34.912     155.023
  N     -283.742     -33.856     155.807
  C     -282.810     -33.688     156.764
  C     -281.680     -34.457     156.987
  C     -281.465     -35.532     156.108
  N     -280.403     -36.400     156.226
  N     -280.994     -34.000     158.098
  C     -281.692     -32.966     158.526
  N     -282.793     -32.738     157.748
  O     -281.641     -25.613     159.171
  O     -279.952     -27.274     158.181
  H     -286.238     -32.426     158.731
  H     -280.813     -25.202     159.486
  H     -284.121     -35.129     154.214
  H     -281.450     -32.364     159.395
  H     -284.573     -31.903     157.131
  H     -284.305     -32.786     159.839
  H     -282.828     -31.002     160.414
  H     -284.627     -29.161     158.732
  H     -282.895     -28.012     160.089
  H     -281.631     -29.042     159.365
  H     -280.325     -37.161     155.571
  H     -279.788     -36.312     157.023
  P     -284.045     -30.367     162.630
  C     -283.404     -32.405     164.114
  O     -284.126     -31.930     162.988
  O     -285.195     -29.707     163.528
  O     -282.710     -29.744     162.887
  H     -284.937     -28.808     163.805
  H     -283.559     -33.459     164.219
  H     -283.748     -31.905     164.995
  H     -282.361     -32.210     163.977

 6  7  8  9  10  11  12  13  14  15  25  28  32  33  34  35 0
 6-311+G(2d,p)
 ****
 36  37  40 0
 6-311+G(2d,p)
 ****
 1  2  3  4  5  16  17  18  19  20  21  22  23  24 0
 3-21G
 ****
 26  27  29  30  31  38  39 41  42  43  44  45  46  47  48 0
 3-21G
 ****


