%nproc=1
%NoSave
%Mem=1900MB
#P OB98/GEN NMR

erre ene a

0 1
  C       -8.601     118.259      75.630
  O       -8.626     119.632      75.969
  H       -9.380     118.037      74.895
  H       -7.627     118.024      75.192
  H       -8.744     117.644      76.525
  P       -9.971     120.175      76.659
  C      -11.356     119.448      74.587
  O      -11.177     119.353      75.992
  C      -12.819     119.733      74.259
  O      -13.632     118.581      74.578
  C      -13.430     120.896      75.031
  O      -13.077     122.150      74.469
  C      -14.914     120.603      74.854
  O      -15.343     121.036      73.549
  C      -14.951     119.069      74.939
  N      -18.624     116.964      77.817
  C      -18.572     117.272      76.501
  N      -17.551     117.813      75.804
  C      -16.490     118.019      76.602
  C      -16.382     117.733      77.954
  C      -17.519     117.188      78.573
  N      -17.580     116.938      79.939
  N      -15.140     118.101      78.434
  C      -14.517     118.613      77.393
  N      -15.288     118.578      76.261
  O      -10.120     121.645      76.038
  O       -9.953     120.205      78.152
  H      -15.162     121.992      73.498
  H       -9.755     122.298      76.665
  H      -19.475     117.059      75.933
  H      -13.516     119.022      77.411
  H      -15.663     118.631      74.227
  H      -15.544     121.117      75.588
  H      -13.181     120.847      76.098
  H      -12.895     119.900      73.176
  H      -11.057     118.503      74.117
  H      -18.522     117.007      80.317
  H      -16.837     117.368      80.477
  H      -10.719     120.254      74.206
  P      -12.505     123.280      75.456
  C      -14.776     124.500      75.228
  O      -13.782     123.997      76.114
  O      -11.930     124.377      74.443
  O      -11.455     122.821      76.411
  H      -10.989     124.547      74.642
  H      -15.565     124.949      75.795
  H      -15.171     123.697      74.642
  H      -14.340     125.232      74.581

 6  7  8  9  10  11  12  13  14  15  25  28  32  33  34  35 0
 6-311+G(2d,p)
 ****
 36  39  40 0
 6-311+G(2d,p)
 ****
 1  2  3  4  5  16  17  18  19  20  21  22  23  24 0
 3-21G
 ****
 26  27  29  30  31  37  38  41  42  43  44  45  46  47  48 0
 3-21G
 ****


