%nproc=1
%NoSave
%Mem=1900MB
#P OB98/GEN NMR

erre ene a

0 1
  C     -178.275      72.283     803.043
  O     -179.012      73.411     803.479
  P     -179.322      74.648     802.507
  C     -181.787      73.963     801.969
  O     -180.910      74.932     802.565
  C     -183.203      74.003     802.561
  O     -183.182      73.550     803.932
  C     -183.716      75.452     802.594
  O     -184.314      76.015     801.440
  C     -184.587      75.527     803.860
  O     -185.965      75.383     803.580
  C     -184.071      74.361     804.701
  N     -184.460      76.909     809.084
  C     -185.465      76.468     808.234
  N     -186.700      76.925     808.504
  N     -185.266      75.673     807.221
  C     -183.948      75.375     807.025
  C     -182.861      75.730     807.800
  C     -183.124      76.578     808.948
  O     -182.238      77.061     809.672
  N     -181.684      75.305     807.265
  C     -182.036      74.720     806.131
  N     -183.393      74.755     805.929
  O     -178.640      74.663     801.184
  O     -178.731      75.880     803.369
  H     -186.450      75.278     804.418
  H     -178.372      76.538     802.748
  H     -184.679      77.570     809.795
  H     -181.350      74.276     805.419
  H     -184.901      73.708     804.996
  H     -184.470      76.503     804.331
  H     -186.875      77.667     809.190
  H     -182.856      76.097     802.801
  H     -187.432      76.760     807.806
  H     -183.869      73.306     802.041
  H     -181.322      72.980     802.125
  H     -181.838      74.139     800.899
  P     -184.393      77.577     801.078
  C     -182.375      77.578     799.485
  O     -183.782      77.788     799.617
  O     -183.285      78.259     802.036
  O     -185.734      78.209     801.303
  H     -183.481      79.206     802.153
  H     -182.032      78.034     798.568
  H     -182.172      76.505     799.465
  H     -181.837      78.027     800.326
  H     -178.186      71.582     803.847
  H     -177.300      72.593     802.731
  H     -178.782      71.821     802.222

 3  4  5  6  7  8  9  10  11  12  23  26  30  31 0
 6-311+G(2d,p)
 ****
 33  35  36  37  38 0
 6-311+G(2d,p)
 ****
 1  2  13  14  15  16  17  18  19  20  21  22  24  25 0
 3-21G
 ****
 27  28  29  32  34  39  40  41  42  43  44  45  46  47  48  49 0
 3-21G
 ****


