%nproc=1
%NoSave
%Mem=1900MB
#P OB98/GEN NMR

erre ene a

0 1
  C     -590.863     -95.092      50.031
  O     -591.249     -94.924      48.684
  P     -592.743     -94.408      48.388
  C     -593.567     -96.651      47.332
  O     -593.702     -95.700      48.383
  C     -594.956     -97.159      46.928
  O     -595.656     -97.689      48.070
  C     -595.859     -96.067      46.364
  O     -595.547     -95.770      45.013
  C     -597.240     -96.691      46.544
  O     -597.551     -97.583      45.452
  C     -597.063     -97.473      47.865
  N     -597.689     -96.803      49.005
  C     -598.862     -97.380      49.482
  O     -599.375     -98.386      48.973
  N     -599.452     -96.745      50.536
  C     -599.032     -95.588      51.124
  O     -599.628     -95.035      52.030
  C     -597.798     -95.001      50.554
  C     -597.197     -95.623      49.533
  O     -592.699     -93.963      46.854
  O     -593.199     -93.303      49.282
  H     -596.790     -98.192      45.373
  H     -593.281     -93.178      46.722
  H     -600.289     -97.166      50.917
  H     -597.434     -94.088      50.991
  H     -596.298     -95.208      49.100
  H     -597.508     -98.480      47.771
  H     -598.038     -95.939      46.577
  H     -595.795     -95.166      46.993
  H     -594.830     -97.966      46.189
  H     -592.955     -97.487      47.673
  H     -593.071     -96.175      46.478
  P     -595.363     -94.220      44.627
  C     -597.835     -93.465      44.208
  O     -596.728     -93.513      45.090
  O     -595.446     -94.300      43.030
  O     -594.098     -93.634      45.166
  H     -596.041     -95.010      42.733
  H     -597.900     -94.371      43.590
  H     -597.733     -92.587      43.557
  H     -598.749     -93.370      44.793
  H     -589.851     -95.437      50.072
  H     -591.504     -95.810      50.499
  H     -590.942     -94.156      50.544

 3  4  5  6  7  8  9  10  11  12  13  23  28  29  30  31  32 0
 6-311+G(2d,p)
 ****
 33  34 0
 6-311+G(2d,p)
 ****
 1  2  14  15  16  17  18  19  20  21  22  24  25  26 0
 3-21G
 ****
 27  35  36  37  38  39  40  41  42  43  44  45 0
 3-21G
 ****


