%nproc=1
%NoSave
%Mem=1900MB
#P OB98/GEN NMR

erre ene a

0 1
  C     -130.874      -0.607      38.818
  O     -129.486      -0.387      39.090
  P     -128.714      -1.172      40.258
  C     -126.307      -0.739      39.458
  O     -127.254      -0.533      40.505
  C     -125.014       0.064      39.651
  O     -125.215       1.464      39.305
  C     -124.440       0.041      41.077
  O     -123.023       0.143      40.933
  C     -125.009       1.321      41.668
  O     -124.312       1.766      42.829
  C     -124.909       2.254      40.472
  N     -125.329       7.137      41.973
  C     -124.256       6.337      41.821
  N     -124.215       5.060      41.383
  C     -125.440       4.631      41.036
  C     -126.630       5.343      41.119
  C     -126.547       6.652      41.626
  N     -127.644       7.460      41.824
  N     -127.697       4.563      40.707
  C     -127.161       3.403      40.384
  N     -125.795       3.396      40.563
  O     -128.703      -2.663      40.090
  O     -129.515      -0.783      41.595
  H     -124.691       2.625      43.097
  H     -129.672      -1.592      42.121
  H     -123.298       6.775      42.101
  H     -127.702       2.528      40.043
  H     -123.881       2.636      40.357
  H     -126.056       1.147      41.958
  H     -124.716      -0.855      41.641
  H     -124.276      -0.329      38.938
  H     -126.772      -0.458      38.507
  H     -127.490       8.358      42.279
  H     -128.569       7.075      41.696
  H     -126.070      -1.812      39.404
  P     -122.037      -1.042      41.401
  C     -120.525      -0.744      39.353
  O     -120.600      -0.718      40.771
  O     -122.544      -2.425      41.130
  O     -121.818      -0.790      42.966
  H     -121.497      -1.610      43.386
  H     -120.511      -1.777      39.004
  H     -119.606      -0.244      39.040
  H     -121.378      -0.220      38.902
  H     -131.181       0.017      38.005
  H     -131.450      -0.368      39.688
  H     -131.028      -1.634      38.559

 3  4  5  6  7  8  9  10  11  12  22  25  29  30  31  32 0
 6-311+G(2d,p)
 ****
 33  36  37 0
 6-311+G(2d,p)
 ****
 1  2  13  14  15  16  17  18  19  20  21  23  24  26 0
 3-21G
 ****
 27  28  34  35  38  39  40  41  42  43  44  45  46  47  48 0
 3-21G
 ****


