%nproc=1
%NoSave
%Mem=1900MB
#P OB98/GEN NMR

erre ene a

0 1
  C      105.546    -332.318     162.240
  O      105.343    -333.703     162.439
  H      105.806    -332.146     161.194
  H      106.368    -331.970     162.868
  H      104.634    -331.760     162.473
  P      104.723    -334.163     163.841
  C      102.283    -334.686     163.106
  O      103.158    -333.802     163.790
  C      101.832    -335.806     164.044
  O      101.024    -335.224     165.109
  C      100.981    -336.887     163.361
  O      101.299    -338.154     163.951
  C       99.562    -336.502     163.746
  O       98.641    -337.581     163.690
  C       99.786    -335.962     165.160
  N       98.687    -335.116     165.616
  C       98.123    -335.407     166.855
  O       98.539    -336.267     167.624
  N       97.028    -334.655     167.196
  C       96.444    -333.685     166.436
  O       95.449    -333.062     166.789
  C       97.082    -333.430     165.132
  C       98.149    -334.146     164.785
  O      105.320    -333.092     164.867
  O      105.019    -335.569     164.246
  H      106.171    -333.399     165.226
  H       98.723    -337.992     162.807
  H       96.612    -334.854     168.089
  H       96.636    -332.674     164.499
  H       98.628    -333.999     163.827
  H       99.930    -336.790     165.865
  H       99.200    -335.714     163.079
  H      101.113    -336.941     162.272
  H      102.716    -336.245     164.519
  H      102.808    -335.126     162.255
  H      101.418    -334.123     162.736
  P      101.085    -339.463     163.049
  C      103.649    -339.656     162.551
  O      102.334    -339.502     162.044
  O       99.852    -339.008     162.137
  O      100.856    -340.695     163.856
  H       99.878    -338.066     161.907
  H      104.346    -339.660     161.739
  H      103.719    -340.580     163.086
  H      103.874    -338.844     163.211

 6  7  8  9  10  11  12  13  14  15  16  27  31  32  33  34  35 0
 6-311+G(2d,p)
 ****
 36  37 0
 6-311+G(2d,p)
 ****
 1  2  3  4  5  17  18  19  20  21  22  23  24  25 0
 3-21G
 ****
 26  28  29  30  38  39  40  41  42  43  44  45 0
 3-21G
 ****


