%nproc=1
%NoSave
%Mem=1900MB
#P OB98/GEN NMR

erre ene a

0 1
  C     -489.687    -651.493     -54.660
  O     -489.173    -650.548     -53.741
  H     -490.727    -651.704     -54.402
  H     -489.109    -652.421     -54.606
  H     -489.650    -651.090     -55.677
  P     -487.660    -650.072     -53.978
  C     -487.202    -650.336     -51.423
  O     -487.160    -649.492     -52.566
  C     -487.831    -649.586     -50.240
  O     -487.194    -648.279     -50.129
  C     -489.342    -649.340     -50.403
  O     -489.940    -649.314     -49.089
  C     -489.368    -647.939     -50.989
  O     -490.649    -647.374     -50.862
  C     -488.252    -647.296     -50.170
  N     -488.710    -642.219     -50.043
  C     -489.264    -643.196     -49.286
  N     -489.084    -644.529     -49.382
  C     -488.207    -644.815     -50.360
  C     -487.566    -643.933     -51.211
  C     -487.850    -642.570     -51.028
  N     -487.312    -641.573     -51.808
  N     -486.759    -644.621     -52.105
  C     -486.909    -645.894     -51.789
  N     -487.772    -646.057     -50.740
  O     -487.828    -648.767     -54.889
  O     -486.754    -651.078     -54.600
  H     -490.679    -646.473     -51.246
  H     -487.772    -649.007     -55.831
  H     -489.940    -642.855     -48.507
  H     -486.435    -646.728     -52.289
  H     -488.557    -647.085     -49.136
  H     -489.117    -647.957     -52.052
  H     -489.845    -650.092     -51.018
  H     -487.611    -650.128     -49.315
  H     -486.185    -650.641     -51.178
  H     -487.799    -651.223     -51.653
  H     -487.590    -640.624     -51.631
  H     -486.697    -641.825     -52.572
  P     -490.483    -650.682     -48.453
  C     -493.039    -650.694     -48.964
  O     -492.015    -650.525     -48.001
  O     -489.719    -650.715     -47.040
  O     -490.175    -651.920     -49.233
  H     -489.350    -651.607     -46.891
  H     -493.993    -650.556     -48.499
  H     -492.982    -651.680     -49.376
  H     -492.916    -649.973     -49.745

 6  7  8  9  10  11  12  13  14  15  25  28  32  33  34  35 0
 6-311+G(2d,p)
 ****
 36  37  40 0
 6-311+G(2d,p)
 ****
 1  2  3  4  5  16  17  18  19  20  21  22  23  24 0
 3-21G
 ****
 26  27  29  30  31  38  39 41  42  43  44  45  46  47  48 0
 3-21G
 ****


