%nproc=1
%NoSave
%Mem=1900MB
#P OB98/GEN NMR

erre ene a

0 1
  C      272.003    -792.750     367.456
  O      273.064    -793.709     367.383
  P      274.575    -793.159     367.319
  C      274.547    -792.829     364.732
  O      274.710    -792.232     366.020
  C      274.401    -791.747     363.658
  O      273.188    -790.986     363.832
  C      275.534    -790.726     363.653
  O      276.666    -791.208     362.942
  C      274.895    -789.580     362.892
  O      274.937    -789.841     361.485
  C      273.440    -789.627     363.406
  N      270.948    -785.473     364.862
  C      270.952    -786.133     363.648
  N      270.166    -785.606     362.669
  N      271.654    -787.202     363.401
  C      272.373    -787.622     364.466
  C      272.462    -787.054     365.712
  C      271.684    -785.867     365.971
  O      271.651    -785.224     367.023
  N      273.305    -787.765     366.532
  C      273.725    -788.776     365.785
  N      273.197    -788.713     364.511
  O      275.400    -794.472     366.917
  O      275.061    -792.568     368.598
  H      275.858    -790.076     361.256
  H      276.312    -794.400     367.251
  H      270.389    -784.650     365.002
  H      274.394    -789.555     366.109
  H      272.725    -789.389     362.614
  H      275.413    -788.635     363.059
  H      269.551    -784.819     362.810
  H      275.791    -790.417     364.681
  H      270.124    -786.098     361.788
  H      274.361    -792.253     362.674
  H      273.671    -793.491     364.730
  H      275.406    -793.482     364.540
  P      277.998    -791.542     363.784
  C      279.915    -790.061     362.808
  O      278.874    -790.197     363.763
  O      278.794    -792.533     362.812
  O      277.764    -792.148     365.125
  H      279.325    -793.159     363.337
  H      280.291    -789.042     362.839
  H      279.552    -790.286     361.801
  H      280.744    -790.747     363.061
  H      271.063    -793.260     367.492
  H      272.033    -792.119     366.593
  H      272.120    -792.155     368.337

 3  4  5  6  7  8  9  10  11  12  23  26  30  31 0
 6-311+G(2d,p)
 ****
 33  35  36  37  38 0
 6-311+G(2d,p)
 ****
 1  2  13  14  15  16  17  18  19  20  21  22  24  25 0
 3-21G
 ****
 27  28  29  32  34  39  40  41  42  43  44  45  46  47  48  49 0
 3-21G
 ****


