%nproc=1
%NoSave
%Mem=1900MB
#P OB98/GEN NMR

erre ene a

0 1
  C     -510.888    -295.889    -517.910
  O     -511.053    -294.939    -518.953
  P     -509.742    -294.358    -519.663
  C     -511.093    -293.447    -521.737
  O     -510.243    -293.172    -520.634
  C     -511.596    -292.142    -522.356
  O     -512.528    -291.500    -521.429
  C     -510.498    -291.110    -522.673
  O     -510.887    -290.428    -523.873
  C     -510.550    -290.181    -521.479
  O     -510.004    -288.905    -521.757
  C     -512.068    -290.160    -521.200
  N     -512.397    -289.724    -519.842
  C     -512.623    -288.365    -519.633
  O     -512.539    -287.515    -520.514
  N     -512.930    -288.007    -518.341
  C     -512.966    -288.839    -517.257
  O     -513.227    -288.462    -516.122
  C     -512.676    -290.257    -517.532
  C     -512.426    -290.621    -518.788
  O     -509.371    -295.544    -520.669
  O     -508.655    -293.965    -518.718
  H     -510.153    -295.990    -521.034
  H     -509.025    -288.980    -521.725
  H     -513.138    -287.029    -518.178
  H     -512.677    -290.942    -516.699
  H     -512.194    -291.669    -519.018
  H     -512.573    -289.513    -521.926
  H     -509.999    -290.622    -520.638
  H     -509.518    -291.587    -522.810
  H     -512.167    -292.387    -523.262
  H     -511.948    -294.037    -521.388
  H     -510.549    -294.045    -522.474
  P     -510.107    -290.780    -525.240
  C     -512.303    -291.105    -526.618
  O     -511.085    -290.419    -526.451
  O     -510.160    -292.386    -525.195
  O     -508.715    -290.246    -525.310
  H     -511.051    -292.729    -524.999
  H     -512.961    -290.509    -527.267
  H     -512.817    -291.262    -525.662
  H     -512.124    -292.070    -527.098
  H     -511.848    -296.181    -517.538
  H     -510.316    -295.453    -517.118
  H     -510.376    -296.749    -518.288

 3  4  5  6  7  8  9  10  11  12  13  24  28  29  30  31  32 0
 6-311+G(2d,p)
 ****
 33  34 0
 6-311+G(2d,p)
 ****
 1  2  14  15  16  17  18  19  20  21  22  23  25  26  27 0
 3-21G
 ****
 35  36  37  38  39  40  41  42  43  44  45 0
 3-21G
 ****


