%nproc=1
%NoSave
%Mem=1900MB
#P OB98/GEN NMR

erre ene a

0 1
  C      116.418     161.393     108.317
  O      115.568     162.173     107.493
  P      114.119     162.555     108.070
  C      115.192     163.965     109.969
  O      114.310     162.906     109.624
  C      114.882     164.501     111.367
  O      115.934     165.426     111.760
  C      113.545     165.251     111.482
  O      113.027     164.974     112.788
  C      113.982     166.700     111.358
  O      113.016     167.635     111.806
  C      115.286     166.658     112.149
  N      116.889     171.187     113.896
  C      116.075     170.251     114.434
  N      115.700     169.065     113.913
  C      116.267     168.875     112.709
  C      117.100     169.744     112.027
  C      117.413     170.953     112.671
  N      118.239     171.910     112.115
  N      117.463     169.220     110.804
  C      116.857     168.052     110.747
  N      116.139     167.793     111.883
  O      113.361     161.148     108.103
  O      113.371     163.577     107.270
  H      112.328     167.757     111.122
  H      112.425     161.245     107.843
  H      115.670     170.487     115.415
  H      116.891     167.369     109.910
  H      115.109     166.616     113.230
  H      114.178     166.923     110.302
  H      112.810     164.942     110.733
  H      114.906     163.661     112.074
  H      115.072     164.784     109.253
  H      118.238     172.815     112.562
  H      118.451     171.817     111.130
  H      116.226     163.611     109.904
  P      111.593     165.569     113.196
  C      110.935     163.086     113.200
  O      110.566     164.396     112.812
  O      111.348     166.613     112.006
  O      111.494     166.149     114.564
  H      111.487     166.203     111.135
  H      110.108     162.408     112.967
  H      111.131     163.048     114.275
  H      111.821     162.767     112.644
  H      117.343     161.216     107.809
  H      115.945     160.458     108.533
  H      116.607     161.917     109.231

 3  4  5  6  7  8  9  10  11  12  22  25  29  30  31  32 0
 6-311+G(2d,p)
 ****
 33  36  37 0
 6-311+G(2d,p)
 ****
 1  2  13  14  15  16  17  18  19  20  21  23  24  26 0
 3-21G
 ****
 27  28  34  35  38  39  40  41  42  43  44  45  46  47  48 0
 3-21G
 ****


