%nproc=1
%NoSave
%Mem=1900MB
#P OB98/GEN NMR

erre ene a

0 1
  C     1295.412       1.691    -231.222
  O     1296.584       1.704    -230.429
  H     1295.692       1.878    -232.265
  H     1294.727       2.482    -230.894
  H     1294.925       0.715    -231.155
  P     1296.382       1.483    -228.851
  C     1294.350       2.035    -227.349
  O     1295.119       2.402    -228.480
  C     1292.895       2.457    -227.528
  O     1292.345       1.885    -228.728
  C     1291.967       2.037    -226.393
  O     1292.046       2.963    -225.320
  C     1290.612       2.097    -227.082
  O     1290.156       3.460    -227.116
  C     1290.945       1.626    -228.511
  N     1287.332      -1.887    -229.513
  C     1287.240      -0.601    -229.126
  N     1288.237       0.263    -228.824
  C     1289.437      -0.331    -228.965
  C     1289.685      -1.639    -229.351
  C     1288.567      -2.438    -229.635
  N     1288.662      -3.755    -230.031
  N     1291.044      -1.905    -229.372
  C     1291.606      -0.750    -229.068
  N     1290.677       0.226    -228.781
  O     1297.606       1.669    -228.015
  O     1295.757       0.014    -228.826
  H     1290.052       3.744    -226.179
  H     1295.115      -0.102    -229.544
  H     1286.233      -0.196    -229.055
  H     1292.670      -0.560    -229.071
  H     1290.388       2.195    -229.271
  H     1289.850       1.514    -226.561
  H     1292.159       1.003    -226.070
  H     1292.878       3.553    -227.653
  H     1294.759       2.488    -226.439
  H     1287.812      -4.299    -230.031
  H     1289.574      -4.200    -229.990
  H     1294.418       0.943    -227.245
  P     1291.679       2.523    -223.819
  C     1289.818       0.973    -222.956
  O     1290.178       1.972    -223.905
  O     1291.922       3.573    -222.789
  O     1292.544       1.191    -223.575
  H     1292.587       1.004    -222.618
  H     1288.799       0.685    -223.111
  H     1289.932       1.364    -221.966
  H     1290.452       0.120    -223.078

 6  7  8  9  10  11  12  13  14  15  25  28  32  33  34  35 0
 6-311+G(2d,p)
 ****
 36  39  40 0
 6-311+G(2d,p)
 ****
 1  2  3  4  5  16  17  18  19  20  21  22  23  24 0
 3-21G
 ****
 26  27  29  30  31  37  38  41  42  43  44  45  46  47 0
 3-21G
 ****
 48 0
 3-21G
 ****


