%nproc=1
%NoSave
%Mem=1900MB
#P OB98/GEN NMR

erre ene a

0 1
  C      119.508     252.882    -381.315
  O      119.552     253.481    -382.595
  H      120.449     253.080    -380.801
  H      119.378     251.800    -381.414
  H      118.688     253.304    -380.724
  P      118.192     253.462    -383.449
  C      117.122     255.773    -382.805
  O      117.154     254.367    -382.629
  C      115.715     256.238    -383.198
  O      114.765     255.697    -382.245
  C      115.552     257.758    -383.209
  O      114.657     258.107    -384.272
  C      114.887     258.049    -381.877
  O      114.177     259.288    -381.887
  C      114.010     256.797    -381.701
  N      113.649     256.565    -380.304
  C      112.927     257.574    -379.665
  O      112.639     258.611    -380.267
  N      112.588     257.418    -378.345
  C      112.989     256.365    -377.697
  N      112.638     256.277    -376.388
  C      113.789     255.292    -378.320
  C      114.068     255.451    -379.615
  O      117.674     251.968    -383.204
  O      118.360     253.832    -384.889
  H      113.494     259.247    -382.590
  H      117.740     251.683    -382.279
  H      114.105     254.440    -377.740
  H      114.643     254.707    -380.154
  H      113.084     256.889    -382.284
  H      115.639     258.099    -381.084
  H      116.497     258.288    -383.336
  H      115.468     255.806    -384.175
  H      112.110     257.046    -375.995
  H      117.833     256.076    -383.581
  H      112.938     255.535    -375.772
  H      117.426     256.240    -381.863
  P      114.708     259.585    -384.894
  C      115.771     259.388    -387.244
  O      115.973     259.704    -385.870
  O      114.544     260.702    -383.916
  O      113.478     259.570    -385.928
  H      113.023     260.431    -385.863
  H      116.691     259.509    -387.777
  H      115.032     260.043    -387.656
  H      115.439     258.375    -387.332

 6  7  8  9  10  11  12  13  14  15  16  26  30  31  32  33  35 0
 6-311+G(2d,p)
 ****
 37  38 0
 6-311+G(2d,p)
 ****
 1  2  3  4  5  17  18  19  20  21  22  23  24  25 0
 3-21G
 ****
 27  28  29  34  36  39  40  41  42  43  44  45  46 0
 3-21G
 ****


