%nproc=1
%NoSave
%Mem=1900MB
#P OB98/GEN NMR

erre ene a

0 1
  C      -57.052      28.132    -183.249
  O      -57.095      27.247    -184.355
  P      -57.548      25.731    -184.081
  C      -60.103      26.218    -184.167
  O      -58.990      25.812    -183.381
  C      -61.073      25.052    -184.348
  O      -60.464      23.993    -185.114
  C      -61.514      24.401    -183.043
  O      -62.555      25.122    -182.405
  C      -62.028      23.061    -183.547
  O      -63.358      23.213    -184.078
  C      -61.037      22.738    -184.672
  N      -60.012      18.398    -182.282
  C      -61.224      18.908    -182.704
  N      -62.321      18.187    -182.392
  N      -61.348      20.025    -183.374
  C      -60.163      20.642    -183.609
  C      -58.901      20.233    -183.241
  C      -58.780      19.003    -182.489
  O      -57.743      18.528    -182.044
  N      -57.947      21.122    -183.664
  C      -58.626      22.064    -184.285
  N      -59.978      21.844    -184.240
  O      -56.587      25.269    -182.887
  O      -57.452      24.826    -185.260
  H      -63.302      23.893    -184.779
  H      -56.583      24.295    -182.817
  H      -59.969      17.536    -181.764
  H      -58.185      22.930    -184.765
  H      -61.531      22.284    -185.536
  H      -62.085      22.304    -182.759
  H      -62.297      17.353    -181.825
  H      -60.661      24.236    -182.374
  H      -63.228      18.568    -182.636
  H      -61.941      25.418    -184.909
  H      -59.749      26.553    -185.144
  H      -60.605      27.057    -183.675
  P      -62.876      24.725    -180.881
  C      -61.055      26.427    -180.141
  O      -61.557      25.109    -180.054
  O      -62.862      23.126    -180.913
  O      -64.164      25.272    -180.362
  H      -63.425      22.768    -180.202
  H      -60.338      26.583    -179.331
  H      -61.860      27.162    -180.043
  H      -60.542      26.565    -181.097
  H      -56.736      29.100    -183.579
  H      -56.362      27.760    -182.521
  H      -58.026      28.205    -182.812

 3  4  5  6  7  8  9  10  11  12  23  26  30  31 0
 6-311+G(2d,p)
 ****
 33  35  36  37  38 0
 6-311+G(2d,p)
 ****
 1  2  13  14  15  16  17  18  19  20  21  22  24  25 0
 3-21G
 ****
 27  28  29  32  34  39  40  41  42  43  44  45  46  47  48  49 0
 3-21G
 ****


