%nproc=1
%NoSave
%Mem=1900MB
#P OB98/GEN NMR

erre ene a

0 1
  C       -4.659     257.536      22.421
  O       -3.831     258.271      21.550
  P       -4.370     259.378      20.538
  C       -4.179     261.275      22.328
  O       -4.995     260.584      21.389
  C       -4.511     262.774      22.348
  O       -3.763     263.398      23.425
  C       -4.077     263.465      21.043
  O       -5.015     264.414      20.550
  C       -2.682     263.975      21.377
  O       -2.238     265.017      20.524
  C       -2.825     264.332      22.852
  N        1.996     265.897      23.217
  C        0.990     266.364      22.392
  N        1.369     267.227      21.427
  N       -0.258     265.987      22.491
  C       -0.464     265.035      23.431
  C        0.453     264.497      24.306
  C        1.822     264.945      24.208
  O        2.766     264.476      24.841
  N       -0.098     263.504      25.073
  C       -1.341     263.415      24.641
  N       -1.599     264.302      23.620
  O       -5.133     258.887      19.352
  O       -2.992     260.027      20.000
  H       -2.887     265.744      20.584
  H       -3.140     260.282      19.067
  H        2.955     266.166      23.037
  H       -2.081     262.713      25.006
  H       -3.235     265.338      22.981
  H       -1.987     263.137      21.244
  H        2.343     267.421      21.232
  H       -4.005     262.737      20.231
  H        0.711     267.386      20.667
  H       -5.575     262.907      22.560
  H       -3.144     261.122      22.008
  H       -4.290     260.840      23.324
  P       -5.080     265.102      19.113
  C       -7.324     264.151      18.316
  O       -5.923     264.157      18.129
  O       -3.596     264.985      18.530
  O       -5.520     266.529      19.123
  H       -3.367     265.807      18.052
  H       -7.741     263.284      17.792
  H       -7.754     265.061      17.895
  H       -7.576     264.078      19.377
  H       -4.061     256.859      22.995
  H       -5.376     256.983      21.850
  H       -5.169     258.208      23.080

 3  4  5  6  7  8  9  10  11  12  23  26  30  31 0
 6-311+G(2d,p)
 ****
 33  35  36  37  38 0
 6-311+G(2d,p)
 ****
 1  2  13  14  15  16  17  18  19  20  21  22  24  25 0
 3-21G
 ****
 27  28  29  32  34  39  40  41  42  43  44  45  46  47  48  49 0
 3-21G
 ****


