%nproc=1
%NoSave
%Mem=1900MB
#P OB98/GEN NMR

erre ene a

0 1
  C      101.320      41.645    -895.420
  O      100.908      40.331    -895.710
  H      102.028      41.609    -894.580
  H      100.466      42.262    -895.120
  H      101.826      42.107    -896.280
  P       99.983      40.084    -897.000
  C       97.962      39.062    -895.760
  O       98.461      40.165    -896.510
  C       96.499      39.312    -895.390
  O       96.397      40.463    -894.520
  C       95.604      39.623    -896.590
  O       95.288      38.434    -897.310
  C       94.419      40.271    -895.890
  O       93.531      39.288    -895.330
  C       95.115      41.085    -894.780
  N       95.279      42.511    -895.110
  C       94.324      43.372    -894.590
  O       93.371      42.994    -893.900
  N       94.492      44.691    -894.910
  C       95.415      45.205    -895.770
  O       95.459      46.393    -896.100
  C       96.380      44.234    -896.310
  C       96.272      42.953    -895.970
  O      100.325      38.866    -897.810
  O      100.165      41.421    -897.860
  H       92.725      39.759    -895.060
  H      100.746      41.247    -898.620
  H       93.801      45.341    -894.550
  H       97.142      44.602    -896.990
  H       96.969      42.224    -896.360
  H       94.547      41.017    -893.840
  H       93.821      40.886    -896.570
  H       96.083      40.356    -897.230
  H       96.130      38.437    -894.840
  H       98.556      38.945    -894.850
  H       98.049      38.149    -896.360
  P       94.508      38.538    -898.710
  C       92.387      37.155    -898.260
  O       92.934      38.468    -898.410
  O       94.997      37.616    -899.770
  O       94.729      40.068    -899.150
  H       95.214      40.096    -900.000
  H       91.337      37.226    -898.064
  H       92.869      36.659    -897.444
  H       92.545      36.598    -899.160

 6  7  8  9  10  11  12  13  14  15  16  26  31  32  33  34  35 0
 6-311+G(2d,p)
 ****
 36  37 0
 6-311+G(2d,p)
 ****
 1  2  3  4  5  17  18  19  20  21  22  23  24  25 0
 3-21G
 ****
 27  28  29  30  38  39  40  41  42  43  44  45 0
 3-21G
 ****


