%nproc=1
%NoSave
%Mem=1900MB
#P OB98/GEN NMR

erre ene a

0 1
  C      -99.123     277.704     169.768
  O     -100.210     277.197     170.522
  H      -98.294     276.994     169.839
  H      -98.798     278.661     170.178
  H      -99.398     277.818     168.717
  P     -101.611     277.972     170.475
  C     -102.165     276.934     168.175
  O     -102.592     277.129     169.520
  C     -103.021     275.862     167.488
  O     -102.742     274.577     168.103
  C     -104.530     276.115     167.592
  O     -105.160     275.713     166.374
  C     -104.962     275.199     168.722
  O     -106.335     274.824     168.621
  C     -103.993     274.029     168.564
  N     -106.281     271.142     172.034
  C     -106.745     271.619     170.825
  N     -108.017     271.299     170.496
  N     -106.032     272.352     170.011
  C     -104.768     272.574     170.454
  C     -104.185     272.156     171.630
  C     -104.997     271.364     172.536
  O     -104.643     270.926     173.625
  N     -102.891     272.602     171.736
  C     -102.690     273.289     170.622
  N     -103.802     273.313     169.823
  O     -101.518     279.431     170.143
  O     -102.239     277.743     171.929
  H     -106.494     274.574     167.684
  H     -102.173     278.550     172.471
  H     -106.874     270.591     172.628
  H     -101.768     273.792     170.357
  H     -104.342     273.291     167.830
  H     -104.814     275.703     169.688
  H     -108.618     270.722     171.064
  H     -104.760     277.159     167.798
  H     -108.378     271.615     169.601
  H     -102.706     275.789     166.436
  H     -101.115     276.612     168.192
  H     -102.238     277.880     167.631
  P     -106.344     276.613     165.771
  C     -105.332     278.827     164.944
  O     -105.756     277.517     164.580
  O     -107.159     277.356     166.781
  O     -107.243     275.540     164.984
  H     -108.184     275.804     165.053
  H     -104.961     279.335     164.078
  H     -104.556     278.760     165.678
  H     -106.160     279.370     165.349

 6  7  8  9  10  11  12  13  14  15  26  29  33  34 0
 6-311+G(2d,p)
 ****
 36  38  39  40  41 0
 6-311+G(2d,p)
 ****
 1  2  3  4  5  16  17  18  19  20  21  22  23  24  25 0
 3-21G
 ****
 27  28  30  31  32  35  37  42  43  44  45  46  47 0
 3-21G
 ****
 48  49 0
 3-21G
 ****


