%nproc=1
%NoSave
%Mem=1900MB
#P OB98/GEN NMR

erre ene a

0 1
  C     -534.300    -161.179      68.751
  O     -535.636    -160.697      68.697
  P     -536.539    -160.867      70.021
  C     -538.456    -162.609      69.942
  O     -537.051    -162.381      70.005
  C     -538.981    -162.327      68.537
  O     -538.266    -163.137      67.578
  C     -540.450    -162.671      68.329
  O     -541.308    -161.637      68.818
  C     -540.518    -162.772      66.816
  O     -540.647    -161.452      66.247
  C     -539.154    -163.383      66.464
  N     -539.674    -166.975      62.920
  C     -539.657    -165.594      62.796
  N     -539.777    -165.106      61.540
  N     -539.547    -164.773      63.806
  C     -539.401    -165.403      64.998
  C     -539.405    -166.760      65.256
  C     -539.581    -167.658      64.136
  O     -539.668    -168.880      64.196
  N     -539.219    -167.016      66.588
  C     -539.067    -165.823      67.132
  N     -539.201    -164.809      66.214
  O     -537.851    -160.024      69.669
  O     -535.894    -160.400      71.287
  H     -540.876    -161.566      65.311
  H     -538.276    -159.717      70.501
  H     -539.749    -167.556      62.115
  H     -538.855    -165.645      68.183
  H     -538.714    -162.888      65.590
  H     -541.386    -163.351      66.468
  H     -539.731    -165.692      60.716
  H     -540.698    -163.642      68.773
  H     -539.728    -164.104      61.423
  H     -538.791    -161.272      68.299
  H     -538.959    -161.938      70.645
  H     -538.667    -163.638      70.235
  P     -542.829    -162.053      69.111
  C     -544.623    -161.179      67.448
  O     -543.548    -162.068      67.678
  O     -543.422    -160.750      69.831
  O     -542.984    -163.280      69.944
  H     -544.178    -160.990      70.404
  H     -544.474    -160.222      67.944
  H     -545.552    -161.636      67.800
  H     -544.706    -161.007      66.374
  H     -533.819    -161.003      67.811
  H     -534.308    -162.229      68.957
  H     -533.767    -160.668      69.526

 3  4  5  6  7  8  9  10  11  12  23  26  30  31  33  0
 6-311+G(2d,p)
 ****
 35  36  37  38 0
 6-311+G(2d,p)
 ****
 1  2  13  14  15  16  17  18  19  20  21  22  24  25  27  28  29 0
 3-21G
 ****
 32  34  39  40  41  42  43  44  45  46  47  48  49 0
 3-21G
 ****


