%nproc=1
%NoSave
%Mem=1900MB
#P OB98/GEN NMR

erre ene a

0 1
  C       68.658     170.589    -476.801
  O       70.031     170.846    -476.990
  H       68.512     170.159    -475.806
  H       68.300     169.870    -477.546
  H       68.072     171.511    -476.866
  P       70.494     171.665    -478.287
  C       69.863     171.556    -480.785
  O       69.985     170.843    -479.564
  C       70.832     170.999    -481.824
  O       72.200     171.235    -481.408
  C       70.721     169.490    -482.028
  O       69.579     169.169    -482.803
  C       72.056     169.198    -482.696
  O       72.010     169.524    -484.097
  C       73.000     170.155    -481.936
  N       73.757     169.491    -480.864
  C       74.771     168.633    -481.272
  O       75.023     168.396    -482.448
  N       75.493     168.046    -480.257
  C       75.238     168.162    -478.921
  O       75.877     167.573    -478.059
  C       74.128     169.054    -478.563
  C       73.448     169.669    -479.525
  O       71.937     172.058    -478.326
  O       69.540     172.949    -478.283
  H       71.351     168.923    -484.501
  H       70.017     173.719    -477.921
  H       76.228     167.411    -480.536
  H       73.893     169.168    -477.507
  H       72.624     170.324    -479.281
  H       73.720     170.606    -482.623
  H       72.338     168.138    -482.628
  H       70.691     168.976    -481.061
  H       70.668     171.529    -482.764
  H       70.100     172.613    -480.603
  H       68.827     171.484    -481.141
  P       68.935     167.700    -482.749
  C       68.964     165.773    -484.421
  O       69.733     166.783    -483.794
  O       67.451     167.659    -482.885
  O       69.402     167.131    -481.327
  H       68.650     167.128    -480.697
  H       69.584     165.220    -485.095
  H       68.159     166.223    -484.964
  H       68.568     165.113    -483.678

 6  7  8  9  10  11  12  13  14  15  16  26  31  32  33  34  35 0
 6-311+G(2d,p)
 ****
 36  37 0
 6-311+G(2d,p)
 ****
 1  2  3  4  5  17  18  19  20  21  22  23  24  25 0
 3-21G
 ****
 27  28  29  30  38  39  40  41  42  43  44  45 0
 3-21G
 ****


