%nproc=1
%NoSave
%Mem=1900MB
#P OB98/GEN NMR

erre ene a

0 1
  C      -75.460     103.786     365.901
  O      -74.577     102.696     365.759
  P      -73.442     102.416     366.860
  C      -71.477     103.734     367.870
  O      -72.595     103.772     366.985
  C      -70.979     105.151     368.146
  O      -72.009     105.959     368.783
  C      -69.804     105.221     369.110
  O      -68.581     104.662     368.690
  C      -69.804     106.696     369.476
  O      -69.154     107.476     368.471
  C      -71.323     107.003     369.507
  N      -71.829     107.128     370.876
  C      -71.768     108.404     371.428
  O      -71.330     109.388     370.832
  N      -72.216     108.515     372.715
  C      -72.656     107.491     373.506
  O      -72.998     107.658     374.674
  C      -72.676     106.166     372.875
  C      -72.265     106.045     371.608
  O      -72.626     101.188     366.629
  O      -74.265     102.400     368.240
  H      -68.225     107.192     368.435
  H      -74.737     103.225     368.437
  H      -72.168     109.429     373.148
  H      -73.031     105.334     373.475
  H      -72.273     105.076     371.119
  H      -71.532     107.943     368.980
  H      -69.281     106.883     370.420
  H      -70.077     104.665     370.023
  H      -70.744     105.627     367.188
  H      -70.675     103.158     367.399
  H      -71.758     103.222     368.800
  P      -67.402     104.260     369.693
  C      -66.440     105.250     371.882
  O      -67.118     105.492     370.669
  O      -66.219     103.568     369.086
  O      -68.147     103.226     370.668
  H      -67.512     102.561     370.985
  H      -66.377     106.188     372.444
  H      -65.429     104.890     371.693
  H      -66.989     104.523     372.490
  H      -76.138     103.806     365.074
  H      -74.900     104.698     365.925
  H      -76.011     103.682     366.812

 3  4  5  6  7  8  9  10  11  12  13  23  28  29  30  31  32 0
 6-311+G(2d,p)
 ****
 33  34 0
 6-311+G(2d,p)
 ****
 1  2  14  15  16  17  18  19  20  21  22  24  25  26  27 0
 3-21G
 ****
 35  36  37  38  39  40  41  42  43  44  45 0
 3-21G
 ****


