%nproc=1
%NoSave
%Mem=1900MB
#P OB98/GEN NMR

erre ene a

0 1
  C      771.167    -430.571     797.733
  O      769.942    -430.990     797.133
  P      769.421    -430.159     795.863
  C      767.947    -428.481     797.244
  O      769.083    -428.687     796.407
  C      767.784    -427.002     797.556
  O      768.881    -426.536     798.395
  C      767.815    -426.103     796.336
  O      766.610    -426.175     795.595
  C      768.092    -424.746     796.973
  O      766.873    -424.193     797.507
  C      769.054    -425.121     798.128
  N      770.434    -424.800     797.843
  C      770.702    -423.461     797.549
  O      769.829    -422.601     797.492
  N      772.014    -423.154     797.279
  C      773.054    -424.038     797.262
  O      774.215    -423.699     797.029
  C      772.711    -425.446     797.532
  C      771.441    -425.758     797.806
  O      767.982    -430.831     795.614
  O      770.357    -430.231     794.696
  H      767.547    -431.090     796.442
  H      766.735    -424.619     798.379
  H      772.220    -422.191     797.081
  H      773.502    -426.167     797.485
  H      771.169    -426.794     798.005
  H      768.753    -424.601     799.045
  H      768.498    -424.014     796.259
  H      768.665    -426.374     795.685
  H      766.846    -426.856     798.104
  H      768.068    -429.033     798.184
  H      767.057    -428.878     796.735
  P      766.588    -427.158     794.322
  C      767.725    -425.551     792.600
  O      767.805    -426.724     793.391
  O      765.283    -426.634     793.540
  O      766.547    -428.612     794.687
  H      765.240    -425.669     793.497
  H      768.722    -425.243     792.331
  H      767.229    -424.735     793.141
  H      767.153    -425.765     791.691
  H      771.394    -431.208     798.562
  H      771.070    -429.562     798.074
  H      771.956    -430.630     797.012

 3  4  5  6  7  8  9  10  11  12  13  24  28  29  30  31  32 0
 6-311+G(2d,p)
 ****
 33  34 0
 6-311+G(2d,p)
 ****
 1  2  14  15  16  17  18  19  20  21  22  23  25  26  27 0
 3-21G
 ****
 35  36  37  38  39  40  41  42  43  44  45 0
 3-21G
 ****


