%nproc=1
%NoSave
%Mem=1900MB
#P OB98/GEN NMR

erre ene a

0 1
  C      169.316     199.511     151.001
  O      168.380     198.482     150.736
  H      169.598     199.467     152.059
  H      168.883     200.495     150.801
  H      170.214     199.373     150.393
  P      167.696     198.436     149.286
  C      166.593     200.241     147.793
  O      166.959     199.849     149.113
  C      165.319     201.079     147.830
  O      164.183     200.245     148.137
  C      165.343     202.161     148.902
  O      166.155     203.251     148.500
  C      163.863     202.464     149.036
  O      163.407     203.327     147.987
  C      163.246     201.051     148.897
  N      162.947     200.434     150.185
  C      161.897     201.003     150.910
  O      161.273     201.964     150.455
  N      161.592     200.479     152.141
  C      162.265     199.469     152.603
  N      161.911     199.000     153.833
  C      163.370     198.830     151.866
  C      163.659     199.359     150.676
  O      166.832     197.249     148.983
  O      168.937     198.548     148.280
  H      163.915     204.158     148.086
  H      169.280     197.660     148.060
  H      163.897     197.989     152.286
  H      164.459     198.951     150.068
  H      162.319     201.091     148.310
  H      163.640     202.947     149.986
  H      165.693     201.746     149.851
  H      165.158     201.513     146.832
  H      161.151     199.474     154.306
  H      166.429     199.324     147.216
  H      162.301     198.170     154.250
  H      167.405     200.807     147.318
  P      167.020     204.061     149.581
  C      166.446     205.337     151.746
  O      165.948     204.794     150.528
  O      168.082     204.944     149.011
  O      167.598     202.902     150.527
  H      168.326     202.399     150.078
  H      165.644     205.796     152.286
  H      167.195     206.069     151.530
  H      166.873     204.554     152.337

 6  7  8  9  10  11  12  13  14  15  16  26  30  31  32  33  35 0
 6-311+G(2d,p)
 ****
 37  38 0
 6-311+G(2d,p)
 ****
 1  2  3  4  5  17  18  19  20  21  22  23  24  25 0
 3-21G
 ****
 27  28  29  34  36  39  40  41  42  43  44  45  46 0
 3-21G
 ****


