%nproc=1
%NoSave
%Mem=1900MB
#P OB98/GEN NMR

erre ene a

0 1
  C      229.145     525.820    1429.290
  O      228.182     526.532    1428.545
  P      228.583     527.894    1427.798
  C      226.952     527.151    1425.954
  O      227.441     528.238    1426.728
  C      225.964     527.636    1424.885
  O      226.615     528.557    1423.977
  C      225.411     526.523    1424.008
  O      224.459     525.724    1424.682
  C      224.853     527.347    1422.846
  O      223.566     527.886    1423.172
  C      225.903     528.471    1422.715
  N      226.811     528.266    1421.592
  C      226.355     528.746    1420.360
  O      225.234     529.218    1420.248
  N      227.213     528.656    1419.280
  C      228.349     528.037    1419.404
  N      229.172     528.022    1418.319
  C      228.787     527.374    1420.656
  C      227.975     527.556    1421.710
  O      229.971     527.942    1427.259
  O      228.366     529.017    1428.911
  H      229.176     529.574    1428.952
  H      223.702     528.537    1423.900
  H      229.703     526.826    1420.683
  H      228.234     527.131    1422.676
  H      225.400     529.441    1422.598
  H      224.731     526.746    1421.933
  H      226.233     525.899    1423.650
  H      225.154     528.168    1425.391
  H      228.844     528.510    1417.480
  H      226.447     526.438    1426.616
  H      230.175     527.877    1418.392
  H      227.802     526.623    1425.488
  P      224.246     524.228    1424.132
  C      224.005     523.603    1426.635
  O      223.570     523.384    1425.312
  O      225.736     523.653    1424.052
  O      223.563     524.151    1422.805
  H      225.824     523.065    1423.276
  H      223.234     523.226    1427.319
  H      224.172     524.656    1426.831
  H      224.942     523.036    1426.813
  H      228.695     524.946    1429.711
  H      229.520     526.442    1430.076
  H      229.951     525.532    1428.648

 3  4  5  6  7  8  9  10  11  12  13  24  27  28  29  30  32 0
 6-311+G(2d,p)
 ****
 34  35 0
 6-311+G(2d,p)
 ****
 1  2  14  15  16  17  18  19  20  21  22  23  25  26 0
 3-21G
 ****
 31  33  36  37  38  39  40  41  42  43  44  45  46 0
 3-21G
 ****


