%nproc=1
%NoSave
%Mem=1900MB
#P OB98/GEN NMR

erre ene a

0 1
  C      490.532    -164.217    -733.680
  O      491.288    -165.147    -734.428
  H      490.941    -164.169    -732.667
  H      489.491    -164.545    -733.620
  H      490.585    -163.220    -734.126
  P      491.016    -165.275    -736.001
  C      493.182    -164.435    -737.132
  O      491.863    -164.117    -736.714
  C      493.680    -163.429    -738.172
  O      492.962    -163.657    -739.421
  C      493.460    -161.951    -737.782
  O      494.513    -161.195    -738.392
  C      492.120    -161.680    -738.450
  O      491.799    -160.311    -738.483
  C      492.366    -162.393    -739.789
  N      491.173    -162.605    -740.610
  C      490.815    -161.601    -741.497
  O      491.429    -160.550    -741.651
  N      489.683    -161.838    -742.239
  C      488.911    -162.963    -742.187
  O      487.928    -163.136    -742.898
  C      489.339    -163.985    -741.219
  C      490.432    -163.765    -740.492
  O      489.583    -165.353    -736.405
  O      491.816    -166.602    -736.414
  H      491.191    -167.345    -736.508
  H      490.862    -160.213    -738.762
  H      489.414    -161.126    -742.895
  H      488.739    -164.883    -741.142
  H      490.777    -164.506    -739.775
  H      493.107    -161.842    -740.376
  H      491.322    -162.161    -737.889
  H      493.465    -161.790    -736.704
  H      494.742    -163.628    -738.377
  H      493.169    -165.440    -737.568
  H      493.845    -164.437    -736.258
  P      495.857    -160.770    -737.623
  C      497.377    -161.792    -739.447
  O      497.030    -161.779    -738.071
  O      495.696    -160.659    -736.141
  O      496.284    -159.365    -738.264
  H      496.807    -158.858    -737.614
  H      498.163    -162.500    -739.610
  H      497.708    -160.818    -739.741
  H      496.522    -162.069    -740.028

 6  7  8  9  10  11  12  13  14  15  16  27  31  32  33  34  35 0
 6-311+G(2d,p)
 ****
 36  37 0
 6-311+G(2d,p)
 ****
 1  2  3  4  5  17  18  19  20  21  22  23  24  25 0
 3-21G
 ****
 26  28  29  30  38  39  40  41  42  43  44  45 0
 3-21G
 ****


