%nproc=1
%NoSave
%Mem=1900MB
#P OB98/GEN NMR

erre ene a

0 1
  C      249.299       2.329    -333.923
  O      249.904       1.281    -333.201
  H      248.873       1.917    -334.843
  H      250.041       3.083    -334.198
  H      248.496       2.787    -333.341
  P      250.651       1.608    -331.818
  C      250.365      -0.782    -330.925
  O      251.294       0.209    -331.343
  C      250.800      -2.173    -331.388
  O      250.859      -2.205    -332.840
  C      252.177      -2.597    -330.861
  O      252.112      -3.930    -330.347
  C      253.060      -2.571    -332.099
  O      254.198      -3.421    -331.993
  C      252.044      -2.947    -333.182
  N      252.528      -2.636    -334.521
  C      252.837      -3.729    -335.335
  O      252.688      -4.878    -334.915
  N      253.356      -3.500    -336.583
  C      253.593      -2.283    -336.965
  N      254.136      -2.126    -338.202
  C      253.309      -1.101    -336.127
  C      252.779      -1.348    -334.929
  O      249.804       2.291    -330.798
  O      251.937       2.462    -332.239
  H      254.792      -3.061    -331.300
  H      252.242       2.985    -331.462
  H      253.531      -0.109    -336.491
  H      252.537      -0.543    -334.243
  H      251.801      -4.017    -333.138
  H      253.419      -1.546    -332.266
  H      252.563      -1.937    -330.082
  H      250.025      -2.893    -331.096
  H      254.321      -2.965    -338.741
  H      249.379      -0.534    -331.335
  H      254.385      -1.233    -338.597
  H      250.314      -0.768    -329.833
  P      252.480      -4.113    -328.796
  C      250.851      -6.084    -328.359
  O      252.198      -5.640    -328.398
  O      251.327      -3.296    -328.045
  O      253.836      -3.599    -328.444
  H      251.700      -2.488    -327.644
  H      250.824      -7.117    -328.080
  H      250.408      -5.964    -329.325
  H      250.306      -5.506    -327.642

 6  7  8  9  10  11  12  13  14  15  16  26  30  31  32  33  35 0
 6-311+G(2d,p)
 ****
 37  38 0
 6-311+G(2d,p)
 ****
 1  2  3  4  5  17  18  19  20  21  22  23  24  25 0
 3-21G
 ****
 27  28  29  34  36  39  40  41  42  43  44  45  46 0
 3-21G
 ****


