%nproc=1
%NoSave
%Mem=1900MB
#P OB98/GEN NMR

erre ene a

0 1
  C      -97.292     309.633     198.520
  O      -97.595     310.040     199.843
  P      -97.272     311.572     200.228
  C      -95.065     312.898     200.677
  O      -95.694     311.640     200.515
  C      -94.207     312.882     201.945
  O      -95.036     312.739     203.116
  C      -93.194     311.745     201.998
  O      -92.039     312.069     201.245
  C      -92.943     311.633     203.497
  O      -92.002     312.631     203.935
  C      -94.341     311.898     204.077
  N      -95.521     308.429     207.566
  C      -94.559     309.429     207.595
  N      -93.838     309.545     208.732
  N      -94.325     310.239     206.592
  C      -95.111     309.999     205.514
  C      -96.081     309.034     205.363
  C      -96.366     308.179     206.496
  O      -97.265     307.346     206.556
  N      -96.647     309.081     204.115
  C      -96.041     310.096     203.527
  N      -95.116     310.700     204.341
  O      -97.940     311.728     201.672
  O      -97.764     312.589     199.248
  H      -91.120     312.427     203.575
  H      -98.812     312.157     201.602
  H      -95.664     307.848     208.370
  H      -96.256     310.444     202.526
  H      -94.295     312.462     205.023
  H      -92.517     310.659     203.775
  H      -93.948     308.940     209.533
  H      -93.645     310.813     201.628
  H      -93.131     310.269     208.765
  H      -93.694     313.854     202.016
  H      -95.834     313.673     200.775
  H      -94.456     313.114     199.795
  P      -91.256     310.871     200.528
  C      -89.536     309.071     201.276
  O      -90.246     310.248     201.610
  O      -90.294     311.622     199.491
  O      -92.137     309.881     199.837
  H      -90.210     311.087     198.674
  H      -88.585     309.077     201.814
  H      -89.341     309.006     200.203
  H      -90.118     308.202     201.589
  H      -97.552     308.603     198.395
  H      -96.245     309.761     198.338
  H      -97.850     310.228     197.827

 3  4  5  6  7  8  9  10  11  12  23  26  30  31 0
 6-311+G(2d,p)
 ****
 33  35  36  37  38 0
 6-311+G(2d,p)
 ****
 1  2  13  14  15  16  17  18  19  20  21  22  24  25 0
 3-21G
 ****
 27  28  29  32  34  39  40  41  42  43  44  45  46  47  48  49 0
 3-21G
 ****


