%nproc=1
%NoSave
%Mem=1900MB
#P OB98/GEN NMR

erre ene a

0 1
  C     -220.263    -470.988     -96.162
  O     -219.562    -472.001     -95.472
  H     -220.169    -470.051     -95.603
  H     -221.322    -471.244     -96.237
  H     -219.842    -470.848     -97.160
  P     -219.623    -473.478     -96.094
  C     -220.626    -475.709     -95.212
  O     -220.713    -474.291     -95.241
  C     -221.028    -476.221     -93.833
  O     -220.078    -475.758     -92.842
  C     -222.385    -475.724     -93.355
  O     -223.460    -476.438     -93.951
  C     -222.273    -475.967     -91.859
  O     -222.599    -477.326     -91.521
  C     -220.783    -475.670     -91.584
  N     -220.588    -474.372     -90.937
  C     -219.802    -474.386     -89.789
  O     -219.288    -475.408     -89.332
  N     -219.647    -473.181     -89.161
  C     -220.226    -471.998     -89.535
  O     -220.106    -470.969     -88.883
  C     -221.039    -472.047     -90.760
  C     -221.190    -473.216     -91.394
  O     -218.227    -474.122     -95.642
  O     -219.818    -473.533     -97.574
  H     -217.606    -474.128     -96.392
  H     -221.974    -477.887     -92.021
  H     -219.086    -473.171     -88.319
  H     -221.505    -471.123     -91.090
  H     -221.802    -473.278     -92.290
  H     -220.351    -476.440     -90.929
  H     -222.955    -475.330     -91.294
  H     -222.477    -474.644     -93.533
  H     -220.998    -477.322     -93.846
  H     -219.596    -476.016     -95.422
  H     -221.281    -476.121     -95.988
  P     -224.919    -475.775     -93.938
  C     -226.608    -475.244     -91.998
  O     -225.271    -475.478     -92.402
  O     -225.832    -477.033     -94.315
  O     -225.055    -474.601     -94.853
  H     -225.503    -477.868     -93.940
  H     -226.636    -475.067     -90.943
  H     -227.206    -476.100     -92.232
  H     -226.992    -474.389     -92.514

 6  7  8  9  10  11  12  13  14  15  16  27  31  32  33  34  35 0
 6-311+G(2d,p)
 ****
 36  37 0
 6-311+G(2d,p)
 ****
 1  2  3  4  5  17  18  19  20  21  22  23  24  25 0
 3-21G
 ****
 26  28  29  30  38  39  40  41  42  43  44  45 0
 3-21G
 ****


