%nproc=1
%NoSave
%Mem=1900MB
#P OB98/GEN NMR

erre ene a

0 1
  C     -181.375     -18.697     145.165
  O     -182.602     -18.221     145.679
  H     -181.522     -18.997     144.123
  H     -181.040     -19.568     145.737
  H     -180.615     -17.912     145.203
  P     -182.591     -17.688     147.193
  C     -181.675     -18.696     149.409
  O     -182.198     -18.946     148.108
  C     -181.470     -20.017     150.145
  O     -180.410     -20.765     149.505
  C     -181.043     -19.863     151.600
  O     -182.139     -19.563     152.445
  C     -180.423     -21.227     151.872
  O     -181.418     -22.202     152.208
  C     -179.783     -21.577     150.522
  N     -175.296     -23.549     151.927
  C     -176.556     -24.031     151.999
  N     -177.700     -23.447     151.583
  C     -177.447     -22.246     151.035
  C     -176.217     -21.622     150.900
  C     -175.099     -22.329     151.372
  N     -173.819     -21.825     151.332
  N     -176.368     -20.373     150.331
  C     -177.662     -20.249     150.118
  N     -178.351     -21.357     150.522
  O     -184.148     -17.463     147.502
  O     -181.789     -16.452     147.427
  H     -180.942     -23.033     152.396
  H     -184.382     -16.531     147.336
  H     -176.660     -25.011     152.454
  H     -178.145     -19.380     149.686
  H     -179.950     -22.626     150.245
  H     -179.718     -21.185     152.704
  H     -180.263     -19.096     151.688
  H     -182.394     -20.604     150.070
  H     -182.382     -18.077     149.970
  H     -180.726     -18.157     149.312
  H     -173.069     -22.378     151.711
  H     -173.679     -20.873     151.020
  P     -181.839     -19.024     153.923
  C     -180.797     -19.987     156.103
  O     -181.147     -20.213     154.747
  O     -183.298     -18.908     154.574
  O     -181.102     -17.727     153.974
  H     -183.607     -17.983     154.557
  H     -180.349     -20.870     156.508
  H     -181.676     -19.745     156.663
  H     -180.102     -19.176     156.161

 6  7  8  9  10  11  12  13  14  15  25  28  32  33  34  35 0
 6-311+G(2d,p)
 ****
 36  37  40 0
 6-311+G(2d,p)
 ****
 1  2  3  4  5  16  17  18  19  20  21  22  23  24 0
 3-21G
 ****
 26  27  29  30  31  38  39 41  42  43  44  45  46  47  48 0
 3-21G
 ****


