%nproc=1
%NoSave
%Mem=1900MB
#P OB98/GEN NMR

erre ene a

0 1
  C       66.735     176.883     -97.228
  O       66.490     176.594     -98.593
  P       67.616     176.827     -99.716
  C       67.555     174.364    -100.505
  O       68.320     175.399     -99.912
  C       68.449     173.168    -100.841
  O       69.413     173.578    -101.846
  C       69.234     172.610     -99.647
  O       69.329     171.192     -99.826
  C       70.594     173.261     -99.802
  O       71.622     172.547     -99.131
  C       70.727     173.290    -101.329
  N       71.700     174.275    -101.788
  C       72.260     174.094    -103.053
  O       71.959     173.123    -103.745
  N       73.157     175.026    -103.513
  C       73.528     176.002    -102.744
  N       74.374     176.930    -103.268
  C       73.044     176.168    -101.361
  C       72.126     175.292    -100.964
  O       68.553     177.950     -99.439
  O       66.792     176.980    -101.075
  H       71.437     172.573     -98.173
  H       66.476     177.904    -101.232
  H       73.405     176.982    -100.749
  H       71.695     175.350     -99.974
  H       71.002     172.297    -101.703
  H       70.563     174.274     -99.390
  H       68.752     172.822     -98.688
  H       67.824     172.385    -101.287
  H       74.545     176.878    -104.266
  H       67.115     174.746    -101.430
  H       74.444     177.858    -102.865
  H       66.743     174.071     -99.831
  P       69.418     170.264     -98.518
  C       66.917     169.929     -97.913
  O       68.136     170.569     -97.606
  O       70.593     170.983     -97.692
  O       69.761     168.830     -98.744
  H       71.014     170.327     -97.106
  H       66.162     170.248     -97.189
  H       67.026     168.844     -97.846
  H       66.579     170.208     -98.914
  H       65.861     176.658     -96.653
  H       66.975     177.920     -97.121
  H       67.554     176.289     -96.879

 3  4  5  6  7  8  9  10  11  12  13  23  27  28  29  30  32 0
 6-311+G(2d,p)
 ****
 34  35 0
 6-311+G(2d,p)
 ****
 1  2  14  15  16  17  18  19  20  21  22  24  25  26 0
 3-21G
 ****
 31  33  36  37  38  39  40  41  42  43  44  45  46 0
 3-21G
 ****


