%nproc=1
%NoSave
%Mem=1900MB
#P OB98/GEN NMR

erre ene a

0 1
  C       59.831      52.834     -20.082
  O       60.075      53.876     -21.028
  P       61.597      54.355     -21.199
  C       61.525      54.631     -23.775
  O       61.702      55.265     -22.517
  C       60.053      54.616     -24.205
  O       59.444      55.920     -24.015
  C       59.849      54.230     -25.671
  O       58.617      53.509     -25.757
  C       59.676      55.571     -26.357
  O       59.014      55.428     -27.611
  C       58.894      56.341     -25.281
  N       58.964      57.790     -25.446
  C       58.258      58.342     -26.516
  O       57.669      57.611     -27.315
  N       58.268      59.704     -26.686
  C       58.968      60.446     -25.886
  N       58.941      61.788     -26.107
  C       59.776      59.902     -24.778
  C       59.724      58.581     -24.618
  O       62.366      53.011     -21.603
  O       62.175      54.962     -19.962
  H       59.617      54.954     -28.222
  H       63.155      52.897     -21.042
  H       60.361      60.556     -24.149
  H       60.279      58.090     -23.833
  H       57.834      56.053     -25.295
  H       60.654      56.037     -26.529
  H       60.662      53.623     -26.080
  H       59.518      53.909     -23.560
  H       58.368      62.124     -26.872
  H       61.893      53.604     -23.726
  H       59.448      62.457     -25.549
  H       62.146      55.140     -24.519
  P       58.620      52.082     -26.485
  C       56.866      51.000     -24.955
  O       57.146      51.498     -26.248
  O       59.480      51.199     -25.458
  O       59.168      51.991     -27.869
  H       59.618      50.308     -25.826
  H       55.804      50.752     -24.897
  H       57.094      51.754     -24.197
  H       57.448      50.092     -24.770
  H       58.785      52.608     -20.062
  H       60.145      53.154     -19.110
  H       60.380      51.960     -20.365

 3  4  5  6  7  8  9  10  11  12  13  21  23  27  28  29  30  32 0
 6-311+G(2d,p)
 ****
 34  35 0
 6-311+G(2d,p)
 ****
 1  2  14  15  16  17  18  19  20  22  24  25  26 0
 3-21G
 ****
 31  33  36  37  38  39  40  41  42  43  44  45  46 0
 3-21G
 ****


