%nproc=1
%NoSave
%Mem=1900MB
#P OB98/GEN NMR

erre ene a

0 1
  C      231.481    -630.331    -108.752
  O      230.604    -629.775    -107.763
  P      230.779    -628.228    -107.370
  C      229.639    -626.530    -105.797
  O      229.760    -627.901    -106.174
  C      228.332    -626.284    -105.038
  O      227.178    -626.593    -105.843
  C      228.204    -627.146    -103.781
  O      229.047    -626.671    -102.745
  C      226.705    -627.048    -103.509
  O      226.397    -625.829    -102.805
  C      226.118    -626.986    -104.940
  N      225.503    -628.240    -105.355
  C      224.551    -628.783    -104.479
  O      224.299    -628.222    -103.421
  N      223.912    -629.948    -104.840
  C      224.214    -630.518    -105.961
  N      223.551    -631.680    -106.261
  C      225.221    -630.005    -106.915
  C      225.827    -628.870    -106.540
  O      230.751    -627.269    -108.509
  O      232.196    -628.203    -106.625
  H      225.423    -625.845    -102.658
  H      232.614    -627.321    -106.768
  H      225.435    -630.518    -107.836
  H      226.595    -628.414    -107.172
  H      225.359    -626.201    -105.000
  H      226.344    -627.874    -102.901
  H      228.464    -628.189    -104.027
  H      228.309    -625.217    -104.759
  H      222.875    -632.026    -105.594
  H      229.666    -625.905    -106.695
  H      223.675    -632.172    -107.130
  H      230.512    -626.254    -105.189
  P      230.249    -627.614    -102.273
  C      232.166    -627.032    -100.621
  O      230.771    -627.060    -100.867
  O      231.426    -627.219    -103.290
  O      229.969    -629.082    -102.333
  H      231.985    -628.000    -103.476
  H      232.363    -626.369     -99.790
  H      232.715    -626.670    -101.509
  H      232.528    -628.034    -100.369
  H      231.240    -631.363    -108.902
  H      232.494    -630.246    -108.419
  H      231.363    -629.799    -109.673

 3  4  5  6  7  8  9  10  11  12  13  23  27  28  29  30  32 0
 6-311+G(2d,p)
 ****
 34  35 0
 6-311+G(2d,p)
 ****
 1  2  14  15  16  17  18  19  20  21  22  24  25  26 0
 3-21G
 ****
 31  33  36  37  38  39  40  41  42  43  44  45  46 0
 3-21G
 ****


