%nproc=1
%NoSave
%Mem=1900MB
#P OB98/GEN NMR

erre ene a

0 1
  C     -151.888     133.152       3.432
  O     -153.008     132.799       2.622
  P     -154.426     133.473       2.944
  C     -156.552     132.887       4.285
  O     -155.189     132.566       4.027
  C     -157.234     131.757       5.074
  O     -157.313     130.577       4.230
  C     -156.491     131.313       6.339
  O     -156.784     131.981       7.563
  C     -156.997     129.880       6.494
  O     -158.273     129.883       7.162
  C     -157.174     129.401       5.057
  N     -154.935     124.810       5.345
  C     -156.044     125.313       5.930
  N     -156.571     126.547       5.801
  C     -155.842     127.292       4.955
  C     -154.693     126.914       4.283
  C     -154.232     125.606       4.505
  N     -153.097     125.096       3.918
  N     -154.217     127.952       3.509
  C     -155.057     128.944       3.726
  N     -156.064     128.592       4.582
  O     -155.238     133.881       1.762
  O     -154.008     134.755       3.813
  H     -158.590     128.961       7.158
  H     -154.597     135.499       3.583
  H     -156.576     124.635       6.593
  H     -154.975     129.929       3.289
  H     -158.083     128.803       4.925
  H     -156.327     129.265       7.102
  H     -155.408     131.308       6.173
  H     -158.256     132.062       5.328
  H     -157.076     133.043       3.339
  H     -152.813     124.163       4.166
  H     -152.529     125.694       3.335
  H     -156.571     133.839       4.816
  P     -155.653     132.777       8.370
  C     -153.392     131.874       9.328
  O     -154.764     131.653       9.088
  O     -156.156     133.844       9.279
  O     -154.694     133.299       7.201
  H     -154.202     132.598       6.741
  H     -153.025     131.099      10.006
  H     -153.229     132.851       9.789
  H     -152.838     131.810       8.387
  H     -151.022     132.622       3.094
  H     -152.089     132.893       4.451
  H     -151.713     134.205       3.359

 3  4  5  6  7  8  9  10  11  12  22  25  29  30  31  32 0
 6-311+G(2d,p)
 ****
 33  36  37 0
 6-311+G(2d,p)
 ****
 1  2  13  14  15  16  17  18  19  20  21  23  24  26 0
 3-21G
 ****
 27  28  34  35  38  39  40  41  42  43  44  45  46  47  48 0
 3-21G
 ****


