%nproc=1
%NoSave
%Mem=1900MB
#P OB98/GEN NMR

erre ene a

0 1
  C       -7.173     391.215     253.054
  O       -6.420     391.209     251.862
  H       -8.220     391.408     252.805
  H       -6.816     392.014     253.708
  H       -7.107     390.257     253.574
  P       -4.980     390.515     251.865
  C       -3.912     392.775     251.219
  O       -3.874     391.657     252.099
  C       -3.839     394.099     251.981
  O       -4.902     394.151     252.960
  C       -2.526     394.266     252.746
  O       -1.472     394.833     251.986
  C       -2.938     395.195     253.885
  O       -2.821     396.574     253.503
  C       -4.408     394.826     254.124
  N       -4.823     394.603     259.217
  C       -4.444     395.670     258.424
  N       -4.099     396.801     259.077
  N       -4.394     395.615     257.119
  C       -4.670     394.391     256.615
  C       -5.040     393.256     257.302
  C       -5.162     393.345     258.740
  O       -5.508     392.434     259.485
  N       -5.198     392.185     256.455
  C       -4.845     392.652     255.273
  N       -4.595     394.007     255.307
  O       -4.751     390.122     250.326
  O       -4.846     389.307     252.744
  H       -1.879     396.748     253.294
  H       -4.207     389.316     250.272
  H       -4.870     394.714     260.211
  H       -4.796     392.074     254.361
  H       -5.026     395.724     254.261
  H       -2.295     395.051     254.756
  H       -4.037     396.870     260.081
  H       -2.207     393.314     253.180
  H       -3.636     397.540     258.548
  H       -4.006     394.928     251.282
  H       -4.852     392.707     250.672
  H       -3.101     392.709     250.487
  P       -0.194     393.963     251.582
  C        1.450     395.264     253.165
  O        0.867     394.040     252.772
  O        0.487     394.837     250.425
  O       -0.482     392.567     251.134
  H        0.245     394.492     249.547
  H        2.128     395.092     253.975
  H        0.683     395.940     253.480
  H        1.981     395.688     252.338

 6  7  8  9  10  11  12  13  14  15  26  29  33  34 0
 6-311+G(2d,p)
 ****
 36  38  39  40  41 0
 6-311+G(2d,p)
 ****
 1  2  3  4  5  16  17  18  19  20  21  22  23  24  25 0
 3-21G
 ****
 27  28  30  31  32  35  37  42  43  44  45  46  47 0
 3-21G
 ****
 48  49 0
 3-21G
 ****


