%nproc=1
%NoSave
%Mem=1900MB
#P OB98/GEN NMR

erre ene a

0 1
  C      153.698    -364.756    -102.642
  O      153.523    -366.154    -102.690
  H      154.669    -364.512    -103.077
  H      153.684    -364.421    -101.602
  H      152.921    -364.236    -103.208
  P      152.046    -366.752    -102.538
  C      152.503    -369.137    -103.409
  O      152.179    -368.333    -102.283
  C      152.320    -370.628    -103.117
  O      153.427    -371.122    -102.332
  C      151.059    -370.907    -102.297
  O      149.861    -371.019    -103.041
  C      151.412    -372.235    -101.630
  O      151.102    -373.343    -102.493
  C      152.928    -372.120    -101.427
  N      152.791    -373.426     -96.490
  C      152.200    -374.055     -97.572
  N      151.432    -375.130     -97.290
  N      152.345    -373.646     -98.802
  C      153.061    -372.502     -98.918
  C      153.680    -371.784     -97.918
  C      153.563    -372.278     -96.564
  O      154.059    -371.755     -95.567
  N      154.322    -370.677     -98.419
  C      154.028    -370.684     -99.706
  N      153.285    -371.787    -100.061
  O      151.462    -366.693    -104.032
  O      151.155    -366.020    -101.582
  H      151.145    -374.161    -101.971
  H      150.489    -366.630    -104.005
  H      152.673    -373.801     -95.566
  H      154.346    -369.935    -100.421
  H      153.436    -373.060    -101.672
  H      150.846    -372.387    -100.705
  H      151.201    -375.409     -96.353
  H      150.939    -370.152    -101.513
  H      150.778    -375.449     -98.011
  H      152.318    -371.186    -104.064
  H      153.545    -368.931    -103.655
  H      151.902    -368.841    -104.273
  P      148.478    -370.514    -102.415
  C      147.488    -369.908    -104.745
  O      147.362    -370.662    -103.557
  O      148.697    -368.932    -102.296
  O      148.124    -371.123    -101.102
  H      148.984    -368.700    -101.394
  H      146.665    -370.125    -105.394
  H      148.405    -370.163    -105.234
  H      147.489    -368.865    -104.507

 6  7  8  9  10  11  12  13  14  15  26  29  33  34 0
 6-311+G(2d,p)
 ****
 36  38  39  40  41 0
 6-311+G(2d,p)
 ****
 1  2  3  4  5  16  17  18  19  20  21  22  23  24  25 0
 3-21G
 ****
 27  28  30  31  32  35  37  42  43  44  45  46  47 0
 3-21G
 ****
 48  49 0
 3-21G
 ****


