%nproc=1
%NoSave
%Mem=1900MB
#P OB98/GEN NMR

erre ene a

0 1
  C      391.175      76.758    -140.667
  O      390.933      77.265    -141.992
  P      390.910      78.856    -142.226
  C      389.587      80.129    -144.091
  O      390.557      79.142    -143.765
  C      389.164      79.985    -145.555
  O      390.300      80.168    -146.433
  C      388.600      78.617    -145.917
  O      387.265      78.458    -145.464
  C      388.726      78.633    -147.438
  O      387.617      79.325    -148.037
  C      390.035      79.422    -147.640
  N      391.159      78.556    -147.993
  C      392.041      79.046    -148.954
  O      391.871      80.115    -149.536
  N      393.107      78.241    -149.245
  C      393.342      76.997    -148.733
  O      394.310      76.317    -149.052
  C      392.333      76.501    -147.783
  C      391.303      77.288    -147.464
  O      392.472      79.223    -142.172
  O      390.148      79.651    -141.218
  H      387.812      79.384    -148.993
  H      392.579      80.144    -141.866
  H      393.773      78.591    -149.917
  H      392.469      75.506    -147.372
  H      390.555      76.936    -146.765
  H      389.907      80.166    -148.435
  H      388.741      77.627    -147.863
  H      389.246      77.832    -145.514
  H      388.431      80.773    -145.779
  H      390.019      81.124    -143.939
  H      388.726      80.015    -143.426
  P      387.079      77.880    -143.977
  C      385.139      76.140    -144.163
  O      385.536      77.462    -143.877
  O      387.200      79.222    -143.110
  O      388.072      76.821    -143.626
  H      386.842      79.998    -143.580
  H      385.910      75.415    -143.874
  H      384.939      76.046    -145.233
  H      384.222      75.916    -143.607
  H      391.157      75.688    -140.686
  H      390.415      77.116    -140.004
  H      392.132      77.093    -140.326

 3  4  5  6  7  8  9  10  11  12  13  23  28  29  30  31  32 0
 6-311+G(2d,p)
 ****
 33  34 0
 6-311+G(2d,p)
 ****
 1  2  14  15  16  17  18  19  20  21  22  24  25  26 0
 3-21G
 ****
 27  35  36  37  38  39  40  41  42  43  44  45 0
 3-21G
 ****


