%nproc=1
%NoSave
%Mem=1900MB
#P OB98/GEN NMR

erre ene a

0 1
  C      921.533     115.985     -88.392
  O      922.601     116.885     -88.189
  P      922.223     118.425     -87.896
  C      923.268     118.896     -90.227
  O      922.196     119.149     -89.337
  C      923.063     119.696     -91.521
  O      921.832     119.331     -92.152
  C      922.984     121.199     -91.310
  O      924.270     121.748     -91.096
  C      922.339     121.657     -92.607
  O      923.300     121.863     -93.642
  C      921.402     120.459     -92.953
  N      920.001     120.761     -92.763
  C      919.415     121.552     -93.750
  O      920.084     121.983     -94.687
  N      918.087     121.888     -93.612
  C      917.408     121.463     -92.601
  N      916.097     121.808     -92.510
  C      917.996     120.614     -91.503
  C      919.296     120.304     -91.673
  O      923.535     119.004     -87.208
  O      921.007     118.608     -87.046
  H      922.795     121.983     -94.463
  H      923.337     119.749     -86.623
  H      917.394     120.293     -90.681
  H      919.801     119.706     -90.939
  H      921.553     120.148     -94.001
  H      921.782     122.606     -92.482
  H      922.333     121.442     -90.462
  H      923.901     119.448     -92.200
  H      915.726     122.393     -93.242
  H      923.298     117.834     -90.487
  H      915.478     121.504     -91.760
  H      924.219     119.171     -89.744
  P      924.370     123.188     -90.397
  C      925.487     124.062     -92.535
  O      924.436     124.238     -91.605
  O      925.891     123.199     -89.866
  O      923.392     123.482     -89.319
  H      926.031     123.999     -89.312
  H      925.339     124.731     -93.380
  H      925.511     123.032     -92.902
  H      926.444     124.309     -92.067
  H      921.922     115.005     -88.575
  H      920.955     116.302     -89.235
  H      920.912     115.966     -87.521

 3  4  5  6  7  8  9  10  11  12  13  21  23  27  28  29  30  32 0
 6-311+G(2d,p)
 ****
 34  35 0
 6-311+G(2d,p)
 ****
 1  2  14  15  16  17  18  19  20  22  24  25  26 0
 3-21G
 ****
 31  33  36  37  38  39  40  41  42  43  44  45  46 0
 3-21G
 ****


