%nproc=1
%NoSave
%Mem=1900MB
#P OB98/GEN NMR

erre ene a

0 1
  C      -69.825     -16.760     -73.233
  O      -69.588     -17.886     -74.047
  P      -68.786     -19.175     -73.565
  C      -69.263     -21.062     -71.820
  O      -69.439     -19.703     -72.200
  C      -68.744     -21.168     -70.379
  O      -67.391     -20.647     -70.338
  C      -69.581     -20.316     -69.413
  O      -69.851     -20.947     -68.167
  C      -68.821     -18.997     -69.376
  O      -69.116     -18.202     -68.239
  C      -67.376     -19.469     -69.505
  N      -64.267     -15.550     -68.621
  C      -64.838     -16.427     -67.720
  N      -64.707     -16.106     -66.415
  N      -65.503     -17.495     -68.076
  C      -65.647     -17.623     -69.414
  C      -65.127     -16.820     -70.402
  C      -64.366     -15.663     -69.997
  O      -63.939     -14.796     -70.759
  N      -65.535     -17.217     -71.648
  C      -66.331     -18.240     -71.416
  N      -66.457     -18.503     -70.071
  O      -67.296     -19.108     -73.652
  O      -69.287     -20.285     -74.627
  H      -68.606     -17.375     -68.317
  H      -68.534     -20.889     -74.787
  H      -63.833     -14.698     -68.286
  H      -66.863     -18.804     -72.173
  H      -66.959     -19.750     -68.536
  H      -69.123     -18.419     -70.256
  H      -64.329     -15.217     -66.119
  H      -70.580     -20.138     -69.826
  H      -65.318     -16.585     -65.759
  H      -68.705     -22.222     -70.087
  H      -68.531     -21.485     -72.517
  H      -70.197     -21.617     -71.936
  P      -71.083     -20.723     -67.178
  C      -73.598     -21.221     -67.215
  O      -72.441     -20.969     -67.989
  O      -71.115     -19.149     -66.902
  O      -70.990     -21.470     -65.888
  H      -71.335     -18.985     -65.966
  H      -74.372     -21.637     -67.866
  H      -73.963     -20.286     -66.784
  H      -73.383     -21.937     -66.416
  H      -70.383     -16.032     -73.785
  H      -68.891     -16.337     -72.928
  H      -70.382     -17.056     -72.368

 3  4  5  6  7  8  9  10  11  12  23  26  30  31 0
 6-311+G(2d,p)
 ****
 33  35  36  37  38 0
 6-311+G(2d,p)
 ****
 1  2  13  14  15  16  17  18  19  20  21  22  24  25 0
 3-21G
 ****
 27  28  29  32  34  39  40  41  42  43  44  45  46  47  48  49 0
 3-21G
 ****


