%nproc=1
%NoSave
%Mem=1900MB
#P OB98/GEN NMR

erre ene a

0 1
  C      622.351     458.276     396.622
  O      623.742     458.018     396.592
  P      624.264     456.784     395.698
  C      625.287     455.464     397.707
  O      625.513     456.146     396.483
  C      626.571     454.810     398.200
  O      626.924     453.736     397.282
  C      627.783     455.742     398.290
  O      628.591     455.280     399.380
  C      628.511     455.476     396.986
  O      629.880     455.849     397.029
  C      628.264     453.987     396.808
  N      631.413     452.293     393.223
  C      631.676     452.712     394.515
  N      632.966     452.602     394.935
  N      630.775     453.186     395.336
  C      629.536     453.219     394.785
  C      629.151     452.868     393.517
  C      630.160     452.313     392.640
  O      629.948     451.857     391.516
  N      627.823     453.136     393.303
  C      627.384     453.552     394.471
  N      628.376     453.585     395.418
  O      624.937     457.513     394.436
  O      623.216     455.794     395.289
  H      629.924     456.799     397.266
  H      624.306     457.599     393.704
  H      632.149     451.921     392.652
  H      626.374     453.853     394.692
  H      628.956     453.375     397.390
  H      628.036     456.060     396.173
  H      633.708     452.217     394.362
  H      627.524     456.795     398.423
  H      633.180     452.867     395.882
  H      626.364     454.349     399.175
  H      624.523     454.695     397.545
  H      624.900     456.176     398.444
  P      629.521     456.359     400.128
  C      631.845     455.801     399.148
  O      630.983     455.733     400.269
  O      628.958     456.315     401.635
  O      629.441     457.741     399.576
  H      629.052     457.199     402.048
  H      632.883     455.716     399.499
  H      631.740     456.745     398.609
  H      631.637     454.969     398.466
  H      622.158     459.119     397.253
  H      621.837     457.419     397.005
  H      622.006     458.485     395.631

 3  4  5  6  7  8  9  10  11  12  23  26  30  31 0
 6-311+G(2d,p)
 ****
 33  35  36  37  38 0
 6-311+G(2d,p)
 ****
 1  2  13  14  15  16  17  18  19  20  21  22  24  25 0
 3-21G
 ****
 27  28  29  32  34  39  40  41  42  43  44  45  46  47  48  49 0
 3-21G
 ****


