%nproc=1
%NoSave
%Mem=1900MB
#P OB98/GEN NMR

erre ene a

0 1
  C      -99.437     260.214      97.952
  O     -100.752     259.695      97.967
  P     -101.609     259.650      99.318
  C     -100.560     257.379      99.876
  O     -101.769     258.114      99.754
  C     -100.829     255.877      99.998
  O      -99.579     255.152      99.864
  C     -101.473     255.464     101.332
  O     -102.413     254.422     101.040
  C     -100.299     254.915     102.122
  O     -100.709     254.032     103.158
  C      -99.475     254.272     101.002
  N      -98.088     254.057     101.384
  C      -97.734     252.770     101.793
  O      -98.603     251.907     101.941
  N      -96.408     252.497     102.033
  C      -95.551     253.471     102.052
  N      -94.241     253.150     102.227
  C      -95.936     254.885     101.873
  C      -97.198     255.103     101.504
  O     -102.888     260.419      99.279
  O     -100.621     260.241     100.433
  H     -101.070     260.971     100.902
  H     -101.317     254.510     103.760
  H      -95.210     255.672     102.022
  H      -97.570     256.103     101.320
  H      -99.912     253.307     100.705
  H      -99.746     255.744     102.579
  H     -101.988     256.289     101.829
  H     -101.471     255.579      99.162
  H      -94.008     252.169     102.306
  H     -100.042     257.720     100.779
  H      -93.486     253.776     101.945
  H      -99.910     257.585      99.018
  P     -103.846     254.462     101.771
  C     -103.390     252.110     102.775
  O     -104.286     252.951     102.076
  O     -104.817     254.856     100.554
  O     -104.002     255.451     102.882
  H     -105.615     255.291     100.911
  H     -103.822     251.110     102.831
  H     -103.234     252.483     103.791
  H     -102.428     252.049     102.253
  H      -99.041     260.154      96.960
  H      -98.821     259.645      98.616
  H      -99.453     261.236      98.269

 3  4  5  6  7  8  9  10  11  12  13  24  27  28  29  30  32 0
 6-311+G(2d,p)
 ****
 34  35 0
 6-311+G(2d,p)
 ****
 1  2  14  15  16  17  18  19  20  21  22  23  25  26 0
 3-21G
 ****
 31  33  36  37  38  39  40  41  42  43  44  45  46 0
 3-21G
 ****


