%nproc=1
%NoSave
%Mem=1900MB
#P OB98/GEN NMR

erre ene a

0 1
  C     1003.330    -491.823    1252.416
  O     1002.754    -492.150    1253.675
  P     1001.215    -491.797    1253.996
  C      999.793    -489.668    1253.909
  O     1001.099    -490.215    1253.808
  C      999.847    -488.309    1254.682
  O     1000.368    -487.299    1253.782
  C      998.504    -487.782    1255.186
  O      998.081    -488.316    1256.436
  C      998.849    -486.295    1255.333
  O      999.582    -486.124    1256.561
  C      999.756    -486.026    1254.139
  N      997.725    -481.814    1252.081
  C      998.419    -482.040    1253.227
  N      998.893    -483.177    1253.714
  C      998.649    -484.208    1252.882
  C      997.958    -484.133    1251.672
  C      997.445    -482.887    1251.275
  N      996.797    -482.676    1250.097
  N      997.903    -485.375    1251.062
  C      998.531    -486.194    1251.902
  N      999.017    -485.515    1253.002
  O     1000.716    -492.334    1255.304
  O     1000.413    -492.382    1252.726
  H      999.763    -485.151    1256.686
  H      999.448    -492.447    1252.927
  H      998.573    -481.145    1253.857
  H      998.694    -487.233    1251.775
  H     1000.578    -485.344    1254.362
  H      997.964    -485.670    1255.421
  H      997.728    -487.889    1254.414
  H     1000.562    -488.404    1255.522
  H      999.168    -490.373    1254.498
  H      996.596    -481.703    1249.856
  H      996.763    -483.438    1249.395
  H      999.366    -489.521    1252.928
  P      996.578    -487.952    1256.922
  C      995.511    -485.762    1257.879
  O      996.706    -486.504    1257.625
  O      995.931    -489.028    1257.723
  O      995.829    -487.622    1255.528
  H      996.152    -486.804    1255.071
  H      995.792    -484.922    1258.503
  H      994.776    -486.347    1258.414
  H      995.116    -485.370    1256.932
  H     1004.353    -492.137    1252.399
  H     1003.279    -490.765    1252.264
  H     1002.791    -492.321    1251.637

 3  4  5  6  7  8  9  10  11  12  22  25  29  30  31  32 0
 6-311+G(2d,p)
 ****
 33  36  37 0
 6-311+G(2d,p)
 ****
 1  2  13  14  15  16  17  18  19  20  21  23  24  26 0
 3-21G
 ****
 27  28  34  35  38  39  40  41  42  43  44  45  46  47  48 0
 3-21G
 ****


