%nproc=1
%NoSave
%Mem=1900MB
#P OB98/GEN NMR

erre ene a

0 1
  C        7.494      18.506     114.159
  O        7.132      17.464     113.281
  H        8.002      18.075     115.026
  H        6.601      19.031     114.505
  H        8.172      19.208     113.666
  P        6.511      17.876     111.860
  C        4.340      19.056     111.064
  O        5.073      18.528     112.159
  C        2.957      19.520     111.525
  O        2.198      18.363     111.962
  C        2.998      20.521     112.682
  O        1.968      21.494     112.482
  C        2.666      19.677     113.899
  O        2.102      20.443     114.963
  C        1.728      18.623     113.299
  N        1.699      17.408     114.109
  C        0.703      17.329     115.086
  O       -0.092      18.258     115.238
  N        0.663      16.230     115.905
  C        1.591      15.329     115.815
  N        1.515      14.277     116.676
  C        2.701      15.404     114.845
  C        2.688      16.456     114.027
  O        6.143      16.471     111.193
  O        7.397      18.705     110.991
  H        1.154      20.599     114.761
  H        6.230      16.506     110.222
  H        3.465      14.642     114.826
  H        3.466      16.600     113.287
  H        0.705      19.016     113.220
  H        3.580      19.202     114.276
  H        3.962      21.026     112.781
  H        2.427      19.941     110.662
  H        0.749      14.271     117.338
  H        4.218      18.275     110.307
  H        2.205      13.543     116.726
  H        4.894      19.891     110.624
  P        2.425      22.916     111.899
  C        3.655      25.024     112.786
  O        3.113      23.745     113.086
  O        1.039      23.677     111.656
  O        3.228      22.819     110.644
  H        0.859      23.746     110.701
  H        4.076      25.450     113.673
  H        2.880      25.662     112.417
  H        4.418      24.923     112.042

 6  7  8  9  10  11  12  13  14  15  16  26  30  31  32  33  35 0
 6-311+G(2d,p)
 ****
 37  38 0
 6-311+G(2d,p)
 ****
 1  2  3  4  5  17  18  19  20  21  22  23  24  25 0
 3-21G
 ****
 27  28  29  34  36  39  40  41  42  43  44  45  46 0
 3-21G
 ****


