%nproc=1
%NoSave
%Mem=1900MB
#P OB98/GEN NMR

erre ene a

0 1
  C      -90.734     543.733    1531.503
  O      -89.816     544.790    1531.348
  P      -89.264     545.170    1529.895
  C      -87.709     546.858    1531.055
  O      -87.813     545.849    1530.063
  C      -86.240     547.213    1531.319
  O      -85.537     547.415    1530.067
  C      -86.048     548.505    1532.104
  O      -86.370     548.356    1533.479
  C      -84.568     548.770    1531.819
  O      -83.724     547.991    1532.676
  C      -84.430     548.316    1530.347
  N      -84.397     549.435    1529.420
  C      -83.124     549.782    1528.949
  O      -82.131     549.223    1529.373
  N      -83.038     550.768    1527.986
  C      -84.106     551.430    1527.636
  N      -83.979     552.365    1526.659
  C      -85.444     551.195    1528.244
  C      -85.511     550.173    1529.099
  O      -90.210     545.940    1529.028
  O      -88.917     543.764    1529.242
  H      -89.331     543.718    1528.341
  H      -82.800     548.292    1532.525
  H      -86.279     551.813    1527.963
  H      -86.453     549.903    1529.563
  H      -83.525     547.710    1530.228
  H      -84.302     549.826    1531.982
  H      -86.647     549.293    1531.662
  H      -85.767     546.365    1531.841
  H      -83.036     552.475    1526.246
  H      -88.171     546.511    1531.988
  H      -84.753     552.678    1526.094
  H      -88.267     547.750    1530.733
  P      -87.212     549.550    1534.157
  C      -88.417     547.671    1535.482
  O      -87.850     548.973    1535.501
  O      -88.478     549.712    1533.170
  O      -86.465     550.828    1534.277
  H      -88.730     550.646    1533.099
  H      -88.480     547.307    1536.523
  H      -87.814     546.985    1534.893
  H      -89.449     547.736    1535.072
  H      -90.986     543.629    1532.538
  H      -90.294     542.824    1531.150
  H      -91.619     543.944    1530.939

 3  4  5  6  7  8  9  10  11  12  13  24  27  28  29  30  32 0
 6-311+G(2d,p)
 ****
 34  35 0
 6-311+G(2d,p)
 ****
 1  2  14  15  16  17  18  19  20  21  22  23  25  26 0
 3-21G
 ****
 31  33  36  37  38  39  40  41  42  43  44  45  46 0
 3-21G
 ****


