%nproc=1
%NoSave
%Mem=1900MB
#P OB98/GEN NMR

erre ene a

0 1
  C       45.532     107.790     173.196
  O       46.889     107.588     172.846
  P       47.182     106.629     171.588
  C       46.700     104.115     171.072
  O       46.735     105.155     172.037
  C       47.079     102.790     171.737
  O       46.482     102.694     173.046
  C       46.623     101.555     170.969
  O       47.530     101.259     169.921
  C       46.595     100.506     172.074
  O       47.918      99.990     172.327
  C       46.085     101.314     173.273
  N       42.184      98.197     174.064
  C       43.498      97.912     173.742
  N       43.827      96.605     173.666
  N       44.406      98.827     173.522
  C       43.928     100.087     173.618
  C       42.648     100.496     173.914
  C       41.667      99.477     174.206
  O       40.517      99.676     174.591
  N       42.540     101.864     173.900
  C       43.762     102.282     173.629
  N       44.646     101.242     173.471
  O       48.777     106.560     171.551
  O       46.589     107.086     170.293
  H       48.375      99.842     171.485
  H       49.133     107.180     170.884
  H       41.530      97.454     174.239
  H       44.059     103.313     173.556
  H       46.550     100.997     174.218
  H       45.972      99.645     171.812
  H       43.177      95.848     173.799
  H       45.611     101.699     170.577
  H       44.786      96.375     173.430
  H       48.168     102.779     171.869
  H       47.414     104.334     170.275
  H       45.694     104.058     170.641
  P       46.952     100.480     168.646
  C       45.058      98.738     168.294
  O       45.980      99.331     169.192
  O       48.227      99.676     168.098
  O       46.374     101.360     167.588
  H       48.200      99.642     167.122
  H       44.878      97.705     168.613
  H       45.436      98.731     167.269
  H       44.119      99.291     168.330
  H       45.475     108.442     174.042
  H       45.083     106.850     173.439
  H       45.013     108.230     172.371

 3  4  5  6  7  8  9  10  11  12  23  26  30  31 0
 6-311+G(2d,p)
 ****
 33  35  36  37  38 0
 6-311+G(2d,p)
 ****
 1  2  13  14  15  16  17  18  19  20  21  22  24  25 0
 3-21G
 ****
 27  28  29  32  34  39  40  41  42  43  44  45  46  47  48  49 0
 3-21G
 ****


