%nproc=1
%NoSave
%Mem=1900MB
#P OB98/GEN NMR

erre ene a

0 1
  C      120.650     131.715    -144.695
  O      121.905     132.050    -145.251
  H      120.704     130.700    -144.292
  H      119.873     131.745    -145.466
  H      120.398     132.405    -143.887
  P      122.024     133.489    -145.956
  C      121.336     132.497    -148.259
  O      121.064     133.451    -147.241
  C      121.506     133.206    -149.596
  O      122.177     132.334    -150.535
  C      120.193     133.586    -150.267
  O      119.619     134.752    -149.700
  C      120.651     133.792    -151.703
  O      121.191     135.111    -151.901
  C      121.750     132.716    -151.860
  N      121.289     131.570    -152.638
  C      121.311     131.733    -154.019
  O      121.685     132.767    -154.575
  N      120.845     130.674    -154.753
  C      120.336     129.509    -154.247
  O      119.867     128.628    -154.961
  C      120.351     129.391    -152.779
  C      120.812     130.412    -152.052
  O      123.498     133.464    -146.579
  O      121.815     134.655    -145.051
  H      124.103     133.989    -146.023
  H      121.661     135.084    -152.756
  H      120.841     130.775    -155.756
  H      119.964     128.476    -152.347
  H      120.813     130.354    -150.967
  H      122.627     133.138    -152.364
  H      119.827     133.677    -152.408
  H      119.492     132.743    -150.239
  H      122.133     134.095    -149.442
  H      120.502     131.789    -148.330
  H      122.244     131.943    -147.992
  P      118.103     135.122    -150.077
  C      118.653     137.301    -151.440
  O      118.161     135.971    -151.437
  O      117.759     136.203    -148.952
  O      117.194     133.940    -150.119
  H      118.518     136.768    -148.725
  H      118.611     137.694    -152.434
  H      119.666     137.307    -151.096
  H      118.053     137.905    -150.792

 6  7  8  9  10  11  12  13  14  15  16  27  31  32  33  34  35 0
 6-311+G(2d,p)
 ****
 36  37 0
 6-311+G(2d,p)
 ****
 1  2  3  4  5  17  18  19  20  21  22  23  24  25 0
 3-21G
 ****
 26  28  29  30  38  39  40  41  42  43  44  45 0
 3-21G
 ****


