%nproc=1
%NoSave
%Mem=1900MB
#P OB98/GEN NMR

erre ene a

0 1
  C     -665.064    -222.592    -375.666
  O     -664.710    -222.303    -377.003
  H     -664.627    -223.555    -375.392
  H     -666.150    -222.663    -375.568
  H     -664.680    -221.825    -374.989
  P     -665.088    -220.867    -377.607
  C     -667.184    -219.374    -377.709
  O     -666.631    -220.606    -377.264
  C     -668.434    -219.640    -378.544
  O     -669.500    -220.127    -377.697
  C     -668.997    -218.395    -379.223
  O     -668.223    -218.021    -380.345
  C     -670.409    -218.856    -379.536
  O     -670.444    -219.641    -380.735
  C     -670.748    -219.730    -378.307
  N     -671.598    -219.023    -377.349
  C     -672.963    -219.032    -377.616
  O     -673.462    -219.605    -378.585
  N     -673.741    -218.305    -376.757
  C     -673.282    -217.480    -375.770
  O     -673.994    -216.663    -375.194
  C     -671.843    -217.558    -375.494
  C     -671.074    -218.303    -376.291
  O     -664.708    -220.646    -379.033
  O     -664.328    -219.841    -376.635
  H     -663.517    -219.523    -377.077
  H     -669.708    -220.280    -380.656
  H     -674.732    -218.275    -376.970
  H     -671.448    -216.973    -374.674
  H     -670.002    -218.349    -376.131
  H     -671.257    -220.649    -378.618
  H     -671.087    -218.012    -379.671
  H     -669.045    -217.571    -378.504
  H     -668.201    -220.415    -379.283
  H     -666.440    -218.858    -378.326
  H     -667.422    -218.754    -376.839
  P     -668.183    -216.495    -380.825
  C     -669.681    -214.919    -382.195
  O     -669.621    -216.115    -381.422
  O     -667.028    -216.132    -381.698
  O     -668.140    -215.662    -379.457
  H     -667.410    -215.011    -379.508
  H     -670.683    -214.767    -382.539
  H     -669.024    -215.004    -383.035
  H     -669.382    -214.088    -381.591

 6  7  8  9  10  11  12  13  14  15  16  27  31  32  33  34  35 0
 6-311+G(2d,p)
 ****
 36  37 0
 6-311+G(2d,p)
 ****
 1  2  3  4  5  17  18  19  20  21  22  23  24  25 0
 3-21G
 ****
 26  28  29  30  38  39  40  41  42  43  44  45 0
 3-21G
 ****


