%nproc=1
%NoSave
%Mem=1900MB
#P OB98/GEN NMR

erre ene a

0 1
  C       44.886      19.973     -23.362
  O       45.556      18.733     -23.517
  P       46.339      18.476     -24.894
  C       44.987      16.262     -25.091
  O       45.446      17.443     -25.735
  C       43.514      16.025     -25.409
  O       42.737      17.213     -25.150
  C       43.238      15.678     -26.867
  O       43.483      14.311     -27.152
  C       41.752      15.983     -26.963
  O       40.989      14.891     -26.418
  C       41.621      17.226     -26.072
  N       38.737      20.866     -28.078
  C       38.400      19.855     -27.199
  N       37.097      19.769     -26.855
  N       39.260      19.008     -26.701
  C       40.527      19.210     -27.143
  C       40.984      20.177     -28.009
  C       40.017      21.101     -28.561
  O       40.245      21.982     -29.383
  N       42.334      20.070     -28.211
  C       42.697      19.043     -27.469
  N       41.630      18.461     -26.836
  O       47.596      17.592     -24.446
  O       46.751      19.713     -25.618
  H       41.392      14.673     -25.554
  H       48.279      17.605     -25.142
  H       38.036      21.491     -28.438
  H       43.711      18.677     -27.373
  H       40.705      17.204     -25.476
  H       41.414      16.125     -27.993
  H       36.375      20.352     -27.253
  H       43.791      16.340     -27.546
  H       36.810      18.999     -26.262
  H       43.147      15.229     -24.748
  H       45.117      16.368     -24.012
  H       45.589      15.411     -25.428
  P       44.695      13.986     -28.153
  C       43.148      12.690     -29.788
  O       44.017      13.788     -29.592
  O       45.131      12.508     -27.725
  O       45.828      14.955     -28.085
  H       46.068      12.353     -27.944
  H       42.580      12.853     -30.710
  H       42.444      12.589     -28.957
  H       43.729      11.770     -29.891
  H       44.412      20.005     -22.403
  H       44.147      20.078     -24.129
  H       45.593      20.772     -23.437

 3  4  5  6  7  8  9  10  11  12  23  26  30  31 0
 6-311+G(2d,p)
 ****
 33  35  36  37  38 0
 6-311+G(2d,p)
 ****
 1  2  13  14  15  16  17  18  19  20  21  22  24  25 0
 3-21G
 ****
 27  28  29  32  34  39  40  41  42  43  44  45  46  47  48  49 0
 3-21G
 ****


