%nproc=1
%NoSave
%Mem=1900MB
#P OB98/GEN NMR

erre ene a

0 1
  C     -267.302     165.723     614.884
  O     -267.719     166.960     615.417
  H     -268.140     165.018     614.941
  H     -266.465     165.314     615.456
  H     -267.017     165.835     613.830
  P     -266.650     168.151     615.512
  C     -268.278     169.553     614.077
  O     -266.932     169.127     614.269
  C     -268.345     170.586     612.945
  O     -267.975     169.915     611.714
  C     -269.757     171.170     612.771
  O     -269.775     172.598     612.789
  C     -270.271     170.478     611.517
  O     -271.256     171.199     610.799
  C     -268.994     170.183     610.725
  N     -269.110     169.068     609.791
  C     -269.092     169.370     608.429
  O     -268.960     170.496     607.958
  N     -269.225     168.298     607.588
  C     -269.377     166.990     607.958
  O     -269.481     166.079     607.155
  C     -269.411     166.741     609.405
  C     -269.278     167.772     610.243
  O     -265.228     167.735     615.668
  O     -267.151     169.016     616.765
  H     -270.854     172.042     610.516
  H     -266.592     168.819     617.543
  H     -269.201     168.502     606.602
  H     -269.541     165.723     609.737
  H     -269.300     167.622     611.320
  H     -268.682     171.068     610.155
  H     -270.729     169.523     611.816
  H     -270.400     170.901     613.614
  H     -267.599     171.368     613.136
  H     -268.628     169.997     615.015
  H     -268.906     168.693     613.831
  P     -270.046     173.491     614.085
  C     -267.655     174.410     614.661
  O     -268.704     173.507     614.964
  O     -271.325     173.222     614.796
  O     -270.118     174.991     613.496
  H     -270.761     175.480     614.057
  H     -266.852     174.269     615.354
  H     -268.017     175.414     614.733
  H     -267.304     174.228     613.667

 6  7  8  9  10  11  12  13  14  15  16  26  31  32  33  34  35 0
 6-311+G(2d,p)
 ****
 36  37 0
 6-311+G(2d,p)
 ****
 1  2  3  4  5  17  18  19  20  21  22  23  24  25 0
 3-21G
 ****
 27  28  29  30  38  39  40  41  42  43  44  45 0
 3-21G
 ****


