%nproc=1
%NoSave
%Mem=1900MB
#P OB98/GEN NMR

erre ene a

0 1
  C      -37.813     127.999     -75.103
  O      -36.570     128.516     -75.551
  P      -36.151     130.030     -75.228
  C      -34.675     129.149     -73.318
  O      -35.702     130.060     -73.687
  C      -33.339     129.875     -73.167
  O      -33.513     130.994     -72.265
  C      -32.231     128.997     -72.598
  O      -30.991     129.358     -73.216
  C      -32.161     129.384     -71.130
  O      -30.854     129.132     -70.587
  C      -32.566     130.860     -71.187
  N      -31.820     132.128     -66.269
  C      -30.959     131.745     -67.237
  N      -31.230     131.399     -68.516
  C      -32.542     131.532     -68.773
  C      -33.538     131.918     -67.888
  C      -33.136     132.223     -66.577
  N      -34.012     132.627     -65.593
  N      -34.772     131.908     -68.508
  C      -34.521     131.545     -69.745
  N      -33.185     131.317     -69.959
  O      -37.164     131.057     -75.599
  O      -34.774     130.241     -76.011
  H      -30.673     128.177     -70.708
  H      -34.733     131.141     -76.387
  H      -29.913     131.708     -66.947
  H      -35.262     131.421     -70.521
  H      -31.708     131.506     -71.406
  H      -32.884     128.789     -70.559
  H      -32.421     127.927     -72.737
  H      -33.049     130.282     -74.144
  H      -34.587     128.393     -74.102
  H      -33.619     132.940     -64.719
  H      -34.957     132.863     -65.866
  H      -34.949     128.650     -72.381
  P      -29.922     128.163     -73.393
  C      -30.516     127.946     -75.917
  O      -30.451     127.328     -74.653
  O      -29.702     127.414     -72.118
  O      -28.644     128.969     -73.926
  H      -28.907     129.806     -74.370
  H      -30.932     127.232     -76.635
  H      -29.513     128.226     -76.254
  H      -31.157     128.830     -75.881
  H      -37.909     126.980     -75.415
  H      -38.611     128.576     -75.521
  H      -37.857     128.051     -74.035

 3  4  5  6  7  8  9  10  11  12  22  25  29  30  31  32 0
 6-311+G(2d,p)
 ****
 33  36  37 0
 6-311+G(2d,p)
 ****
 1  2  13  14  15  16  17  18  19  20  21  23  24  26 0
 3-21G
 ****
 27  28  34  35  38  39  40  41  42  43  44  45  46  47  48 0
 3-21G
 ****


