%nproc=1
%NoSave
%Mem=1900MB
#P OB98/GEN NMR

erre ene a

0 1
  C       17.605      41.621      -1.413
  O       17.811      42.115      -0.092
  P       16.667      42.330       0.997
  C       16.270      39.926       1.988
  O       16.834      41.223       2.138
  C       16.814      38.962       3.052
  O       18.252      39.179       3.188
  C       16.189      39.195       4.432
  O       15.867      37.993       5.122
  C       17.181      40.133       5.098
  O       17.074      40.157       6.513
  C       18.511      39.643       4.533
  N       21.716      42.486       7.306
  C       20.698      41.655       7.725
  N       20.489      41.578       9.056
  N       19.938      40.972       6.912
  C       20.200      41.199       5.607
  C       21.172      42.010       5.066
  C       22.041      42.724       5.977
  O       22.971      43.458       5.658
  N       21.142      41.980       3.696
  C       20.144      41.170       3.408
  N       19.545      40.662       4.538
  O       15.290      42.542       0.463
  O       17.107      43.686       1.751
  H       17.625      40.891       6.842
  H       16.279      44.130       2.022
  H       22.286      42.971       7.977
  H       19.823      40.904       2.408
  H       18.916      38.804       5.103
  H       16.965      41.149       4.744
  H       20.953      42.168       9.728
  H       15.222      39.703       4.339
  H       19.609      41.147       9.343
  H       16.659      37.934       2.709
  H       16.565      39.584       0.990
  H       15.181      39.972       2.014
  P       14.443      37.493       5.644
  C       13.478      36.351       3.562
  O       14.046      36.165       4.843
  O       13.398      38.569       5.092
  O       14.330      37.376       7.128
  H       12.949      39.007       5.842
  H       13.015      35.413       3.243
  H       14.261      36.620       2.848
  H       12.715      37.134       3.585
  H       18.542      41.577      -1.928
  H       16.940      42.274      -1.938
  H       17.179      40.641      -1.365

 3  4  5  6  7  8  9  10  11  12  23  26  30  31 0
 6-311+G(2d,p)
 ****
 33  35  36  37  38 0
 6-311+G(2d,p)
 ****
 1  2  13  14  15  16  17  18  19  20  21  22  24  25 0
 3-21G
 ****
 27  28  29  32  34  39  40  41  42  43  44  45  46  47  48  49 0
 3-21G
 ****


