%nproc=1
%NoSave
%Mem=1900MB
#P OB98/GEN NMR

erre ene a

0 1
  C      133.954    -203.842     139.384
  O      134.055    -205.051     140.155
  P      133.958    -204.966     141.763
  C      133.323    -207.485     142.019
  O      134.175    -206.424     142.416
  C      133.882    -208.851     142.475
  O      135.057    -209.189     141.690
  C      134.303    -208.904     143.951
  O      134.060    -210.239     144.415
  C      135.798    -208.639     143.883
  O      136.503    -209.062     145.041
  C      136.147    -209.416     142.605
  N      137.432    -209.046     142.003
  C      138.311    -210.071     141.660
  O      138.107    -211.268     141.870
  N      139.484    -209.675     141.061
  C      139.869    -208.381     140.828
  O      140.947    -208.094     140.320
  C      138.922    -207.341     141.242
  C      137.762    -207.717     141.800
  O      132.390    -204.724     141.988
  O      134.750    -203.871     142.396
  H      136.360    -210.026     145.125
  H      132.260    -204.008     142.639
  H      140.128    -210.404     140.789
  H      139.189    -206.310     141.071
  H      137.041    -206.969     142.106
  H      136.154    -210.491     142.822
  H      135.974    -207.566     143.766
  H      133.767    -208.183     144.575
  H      133.125    -209.616     142.260
  H      133.216    -207.485     140.935
  H      132.329    -207.328     142.462
  P      132.630    -210.580     145.066
  C      132.638    -213.121     144.417
  O      132.637    -212.141     145.436
  O      131.695    -210.521     143.760
  O      132.201    -209.640     146.147
  H      132.087    -210.986     142.997
  H      133.298    -212.840     143.586
  H      131.624    -213.254     144.039
  H      132.987    -214.066     144.842
  H      134.038    -204.075     138.343
  H      134.741    -203.173     139.664
  H      133.008    -203.378     139.571

 3  4  5  6  7  8  9  10  11  12  13  23  28  29  30  31  32 0
 6-311+G(2d,p)
 ****
 33  34 0
 6-311+G(2d,p)
 ****
 1  2  14  15  16  17  18  19  20  21  22  24  25  26 0
 3-21G
 ****
 27  35  36  37  38  39  40  41  42  43  44  45 0
 3-21G
 ****


