%nproc=1
%NoSave
%Mem=1900MB
#P OB98/GEN NMR

erre ene a

0 1
  C      603.861     239.966     605.641
  O      603.528     241.324     605.858
  H      604.938     239.889     605.488
  H      603.348     239.589     604.750
  H      603.577     239.368     606.515
  P      601.962     241.666     605.998
  C      601.490     242.544     603.585
  O      601.404     241.463     604.495
  C      600.335     242.482     602.573
  O      600.406     241.262     601.815
  C      598.947     242.482     603.213
  O      598.529     243.761     603.642
  C      598.131     241.982     602.041
  O      597.976     243.036     601.064
  C      599.049     240.852     601.506
  N      598.737     239.554     602.103
  C      597.633     238.873     601.591
  O      596.933     239.370     600.700
  N      597.285     237.654     602.136
  C      598.011     237.134     603.091
  N      597.620     235.936     603.596
  C      599.199     237.811     603.640
  C      599.503     239.002     603.105
  O      601.945     243.262     606.159
  O      601.218     240.925     607.049
  H      598.874     243.309     600.814
  H      601.019     243.594     606.102
  H      599.766     237.349     604.445
  H      600.369     239.542     603.454
  H      598.959     240.763     600.410
  H      597.126     241.659     602.314
  H      598.876     241.754     604.035
  H      600.464     243.315     601.873
  H      596.765     235.531     603.226
  H      602.457     242.467     603.052
  H      598.025     235.540     604.424
  H      601.451     243.511     604.121
  P      598.116     243.934     605.180
  C      595.619     243.223     604.884
  O      596.899     242.926     605.459
  O      597.425     245.380     605.229
  O      599.253     243.831     606.147
  H      597.598     245.818     606.076
  H      594.919     242.462     605.160
  H      595.706     243.258     603.818
  H      595.277     244.171     605.245

 6  7  8  9  10  11  12  13  14  15  16  26  30  31  32  33  35 0
 6-311+G(2d,p)
 ****
 37  38 0
 6-311+G(2d,p)
 ****
 1  2  3  4  5  17  18  19  20  21  22  23  24  25 0
 3-21G
 ****
 27  28  29  34  36  39  40  41  42  43  44  45  46 0
 3-21G
 ****


