%nproc=1
%NoSave
%Mem=1900MB
#P OB98/GEN NMR

erre ene a

0 1
  C      -51.327      39.370     -54.183
  O      -49.930      39.262     -53.899
  P      -49.540      38.443     -52.575
  C      -47.052      37.895     -53.041
  O      -47.975      38.672     -52.295
  C      -46.667      38.588     -54.352
  O      -46.148      39.928     -54.102
  C      -45.597      37.839     -55.155
  O      -45.893      38.048     -56.542
  C      -44.326      38.589     -54.803
  O      -43.291      38.344     -55.751
  C      -44.867      40.017     -54.766
  N      -40.575      42.646     -55.143
  C      -41.117      41.703     -55.994
  N      -40.442      41.461     -57.137
  N      -42.226      41.057     -55.745
  C      -42.814      41.430     -54.582
  C      -42.383      42.359     -53.664
  C      -41.138      43.045     -53.937
  O      -40.616      43.890     -53.220
  N      -43.269      42.484     -52.620
  C      -44.195      41.576     -52.884
  N      -43.994      40.952     -54.084
  O      -49.625      36.917     -53.052
  O      -50.442      38.713     -51.415
  H      -43.580      38.725     -56.608
  H      -50.466      36.519     -52.759
  H      -39.708      43.102     -55.375
  H      -45.040      41.352     -52.254
  H      -45.029      40.425     -55.773
  H      -43.967      38.281     -53.814
  H      -39.611      41.959     -57.413
  H      -45.533      36.769     -54.938
  H      -40.841      40.804     -57.797
  H      -47.573      38.698     -54.959
  H      -47.485      36.918     -53.269
  H      -46.169      37.699     -52.423
  P      -46.470      36.811     -57.379
  C      -47.771      38.504     -58.839
  O      -46.929      37.370     -58.806
  O      -47.857      36.490     -56.639
  O      -45.587      35.606     -57.401
  H      -47.991      35.525     -56.603
  H      -47.619      39.027     -59.786
  H      -47.558      39.194     -58.018
  H      -48.814      38.183     -58.778
  H      -51.466      39.933     -55.082
  H      -51.818      39.866     -53.372
  H      -51.742      38.392     -54.307

 3  4  5  6  7  8  9  10  11  12  23  26  30  31 0
 6-311+G(2d,p)
 ****
 33  35  36  37  38 0
 6-311+G(2d,p)
 ****
 1  2  13  14  15  16  17  18  19  20  21  22  24  25 0
 3-21G
 ****
 27  28  29  32  34  39  40  41  42  43  44  45  46  47  48  49 0
 3-21G
 ****


