%nproc=1
%NoSave
%Mem=1900MB
#P OB98/GEN NMR

erre ene a

0 1
  C      -60.819    -662.863     272.861
  O      -62.173    -663.051     273.207
  H      -60.263    -663.779     273.110
  H      -60.395    -662.040     273.441
  H      -60.712    -662.664     271.794
  P      -63.238    -661.915     272.830
  C      -63.162    -660.660     275.086
  O      -62.875    -660.609     273.696
  C      -62.640    -659.407     275.796
  O      -63.140    -659.407     277.159
  C      -61.114    -659.316     275.863
  O      -60.716    -657.955     275.698
  C      -60.785    -659.794     277.259
  O      -59.552    -659.260     277.739
  C      -62.010    -659.308     278.049
  N      -60.478    -660.056     282.810
  C      -60.100    -659.085     281.888
  N      -59.161    -658.198     282.295
  N      -60.591    -659.007     280.686
  C      -61.543    -659.943     280.427
  C      -62.008    -660.944     281.250
  C      -61.435    -661.041     282.576
  O      -61.718    -661.877     283.430
  N      -62.957    -661.709     280.617
  C      -63.065    -661.166     279.412
  N      -62.221    -660.102     279.249
  O      -64.675    -662.343     272.916
  O      -62.846    -661.482     271.344
  H      -59.519    -658.317     277.463
  H      -63.477    -661.849     270.691
  H      -60.058    -660.068     283.719
  H      -63.733    -661.519     278.635
  H      -61.911    -658.259     278.365
  H      -60.713    -660.891     277.273
  H      -58.754    -658.198     283.222
  H      -60.633    -659.933     275.088
  H      -58.880    -657.467     281.648
  H      -63.067    -658.524     275.305
  H      -62.675    -661.549     275.503
  H      -64.248    -660.752     275.228
  P      -59.702    -657.569     274.514
  C      -57.529    -657.765     275.896
  O      -58.278    -658.275     274.800
  O      -59.618    -656.110     274.186
  O      -60.272    -658.407     273.276
  H      -60.128    -657.893     272.457
  H      -56.612    -658.309     275.985
  H      -58.096    -657.873     276.797
  H      -57.315    -656.730     275.731

 6  7  8  9  10  11  12  13  14  15  26  29  33  34 0
 6-311+G(2d,p)
 ****
 36  38  39  40  41 0
 6-311+G(2d,p)
 ****
 1  2  3  4  5  16  17  18  19  20  21  22  23  24  25 0
 3-21G
 ****
 27  28  30  31  32  35  37  42  43  44  45  46  47 0
 3-21G
 ****
 48  49 0
 3-21G
 ****


