%nproc=1
%NoSave
%Mem=1900MB
#P OB98/GEN NMR

erre ene a

0 1
  C      604.668     301.845    -282.475
  O      605.897     302.482    -282.832
  P      607.172     302.292    -281.891
  C      608.019     304.725    -281.856
  O      608.277     303.385    -282.279
  C      608.597     305.739    -282.859
  O      609.969     306.077    -282.494
  C      608.636     305.190    -284.295
  O      608.438     306.256    -285.241
  C      610.073     304.708    -284.438
  O      610.455     304.613    -285.810
  C      610.817     305.781    -283.631
  N      615.638     304.845    -285.083
  C      614.577     305.346    -285.763
  N      613.333     305.585    -285.302
  C      613.227     305.267    -283.995
  C      614.228     304.762    -283.174
  C      615.480     304.532    -283.772
  N      616.551     304.003    -283.088
  N      613.752     304.554    -281.891
  C      612.477     304.893    -281.953
  N      612.128     305.366    -283.187
  O      607.694     300.891    -281.779
  O      606.652     302.814    -280.466
  H      611.360     304.260    -285.844
  H      606.968     302.220    -279.760
  H      614.755     305.577    -286.807
  H      611.771     304.808    -281.136
  H      610.936     306.710    -284.205
  H      610.179     303.723    -283.979
  H      607.909     304.395    -284.491
  H      608.022     306.664    -282.810
  H      608.448     304.888    -280.869
  H      617.375     303.768    -283.633
  H      616.403     303.633    -282.161
  H      606.937     304.855    -281.738
  P      607.168     306.094    -286.223
  C      608.461     307.080    -288.273
  O      607.373     307.182    -287.386
  O      605.853     306.134    -285.504
  O      607.467     304.688    -286.928
  H      608.362     304.603    -287.304
  H      608.348     307.826    -289.056
  H      608.495     306.088    -288.733
  H      609.397     307.270    -287.744
  H      603.922     302.074    -283.207
  H      604.348     302.199    -281.517
  H      604.814     300.786    -282.434

 3  4  5  6  7  8  9  10  11  12  22  25  29  30  31  32 0
 6-311+G(2d,p)
 ****
 33  36  37 0
 6-311+G(2d,p)
 ****
 1  2  13  14  15  16  17  18  19  20  21  23  24  26 0
 3-21G
 ****
 27  28  34  35  38  39  40  41  42  43  44  45  46  47  48 0
 3-21G
 ****


