%nproc=1
%NoSave
%Mem=1900MB
#P OB98/GEN NMR

erre ene a

0 1
  C     -169.054     -54.581     126.144
  O     -167.757     -54.225     126.617
  P     -166.578     -53.644     125.715
  C     -165.606     -56.022     125.148
  O     -166.115     -54.777     124.687
  C     -164.398     -56.468     124.311
  O     -164.856     -56.781     122.960
  C     -163.332     -55.373     124.183
  O     -161.998     -55.859     124.309
  C     -163.700     -54.690     122.876
  O     -162.636     -53.941     122.310
  C     -164.220     -55.860     122.042
  N     -164.907     -54.861     117.083
  C     -163.738     -55.106     117.771
  N     -162.593     -55.069     117.054
  N     -163.687     -55.353     119.053
  C     -164.891     -55.284     119.665
  C     -166.120     -55.033     119.093
  C     -166.169     -54.812     117.665
  O     -167.182     -54.609     117.001
  N     -167.119     -55.053     120.034
  C     -166.498     -55.295     121.169
  N     -165.141     -55.451     120.995
  O     -165.498     -52.914     126.443
  O     -167.321     -52.575     124.759
  H     -162.909     -53.668     121.414
  H     -166.671     -51.867     124.581
  H     -164.890     -54.701     116.089
  H     -166.978     -55.382     122.137
  H     -163.414     -56.396     121.537
  H     -164.511     -53.982     123.091
  H     -162.546     -54.766     116.094
  H     -163.417     -54.651     125.002
  H     -161.728     -55.029     117.599
  H     -163.985     -57.384     124.747
  H     -166.423     -56.741     125.039
  H     -165.353     -55.966     126.208
  P     -161.060     -55.877     125.600
  C     -159.603     -53.964     124.708
  O     -160.408     -54.424     125.777
  O     -159.806     -56.783     125.192
  O     -161.706     -56.418     126.835
  H     -159.762     -57.566     125.776
  H     -159.017     -53.106     125.054
  H     -160.244     -53.641     123.880
  H     -158.923     -54.746     124.368
  H     -169.644     -54.942     126.960
  H     -168.965     -55.346     125.402
  H     -169.526     -53.721     125.716

 3  4  5  6  7  8  9  10  11  12  23  26  30  31 0
 6-311+G(2d,p)
 ****
 33  35  36  37  38 0
 6-311+G(2d,p)
 ****
 1  2  13  14  15  16  17  18  19  20  21  22  24  25 0
 3-21G
 ****
 27  28  29  32  34  39  40  41  42  43  44  45  46  47  48  49 0
 3-21G
 ****


