%nproc=1
%NoSave
%Mem=1900MB
#P OB98/GEN NMR

erre ene a

0 1
  C      402.223    -367.521    -648.436
  O      401.226    -368.296    -649.084
  P      400.719    -369.616    -648.324
  C      398.218    -369.163    -648.934
  O      399.185    -369.354    -647.901
  C      397.361    -367.931    -648.633
  O      398.206    -366.778    -648.413
  C      396.408    -367.532    -649.755
  O      395.285    -368.398    -649.797
  C      396.089    -366.097    -649.340
  O      395.118    -366.081    -648.285
  C      397.450    -365.602    -648.815
  N      400.615    -361.642    -649.605
  C      399.987    -362.098    -648.493
  N      399.149    -363.148    -648.363
  C      398.965    -363.758    -649.553
  C      399.519    -363.404    -650.773
  C      400.385    -362.294    -650.779
  N      401.005    -361.834    -651.926
  N      399.085    -364.248    -651.773
  C      398.299    -365.115    -651.161
  N      398.205    -364.866    -649.818
  O      401.492    -369.559    -646.930
  O      400.969    -370.900    -649.053
  H      395.488    -366.585    -647.535
  H      401.706    -370.459    -646.606
  H      400.191    -361.540    -647.583
  H      397.785    -365.934    -651.643
  H      397.350    -364.950    -647.934
  H      395.692    -365.489    -650.167
  H      396.920    -367.536    -650.713
  H      396.806    -368.126    -647.701
  H      397.570    -370.043    -648.992
  H      401.486    -360.945    -651.865
  H      400.728    -362.219    -652.809
  H      398.736    -369.049    -649.900
  P      394.791    -368.887    -651.244
  C      394.565    -371.288    -650.336
  O      395.213    -370.439    -651.288
  O      395.874    -368.201    -652.201
  O      393.365    -368.589    -651.558
  H      396.787    -368.356    -651.889
  H      394.901    -372.313    -650.507
  H      393.475    -371.245    -650.468
  H      394.840    -370.987    -649.325
  H      402.469    -366.676    -649.045
  H      403.097    -368.119    -648.285
  H      401.854    -367.184    -647.490

 3  4  5  6  7  8  9  10  11  12  22  25  29  30  31  32 0
 6-311+G(2d,p)
 ****
 33  36  37 0
 6-311+G(2d,p)
 ****
 1  2  13  14  15  16  17  18  19  20  21  23  24  26 0
 3-21G
 ****
 27  28  34  35  38  39  40  41  42  43  44  45  46  47  48 0
 3-21G
 ****


