%nproc=1
%NoSave
%Mem=1900MB
#P OB98/GEN NMR

erre ene a

0 1
  C      -58.237    -154.155     140.257
  O      -58.486    -155.479     140.691
  P      -59.562    -155.691     141.860
  C      -61.467    -156.358     140.209
  O      -61.014    -155.467     141.218
  C      -62.557    -157.270     140.779
  O      -63.652    -156.483     141.291
  C      -63.169    -158.206     139.744
  O      -62.331    -159.321     139.494
  C      -64.488    -158.574     140.409
  O      -64.309    -159.642     141.354
  C      -64.857    -157.264     141.134
  N      -65.903    -156.515     140.442
  C      -67.207    -156.952     140.656
  O      -67.479    -157.922     141.365
  N      -68.185    -156.260     139.998
  C      -67.991    -155.233     139.122
  O      -68.906    -154.688     138.515
  C      -66.589    -154.834     138.911
  C      -65.625    -155.487     139.565
  O      -59.360    -154.413     142.802
  O      -59.412    -156.967     142.616
  H      -64.154    -160.452     140.831
  H      -59.501    -154.663     143.735
  H      -69.138    -156.543     140.159
  H      -66.396    -154.024     138.219
  H      -64.585    -155.217     139.412
  H      -65.208    -157.482     142.150
  H      -65.236    -158.911     139.685
  H      -63.377    -157.654     138.818
  H      -62.127    -157.841     141.611
  H      -60.627    -156.963     139.855
  H      -61.854    -155.779     139.365
  P      -62.234    -159.829     137.973
  C      -59.870    -158.848     137.447
  O      -61.265    -158.783     137.246
  O      -63.705    -159.476     137.447
  O      -61.860    -161.270     137.863
  H      -64.066    -158.683     137.875
  H      -59.529    -159.881     137.553
  H      -59.608    -158.286     138.348
  H      -59.368    -158.396     136.590
  H      -57.502    -154.167     139.479
  H      -57.877    -153.572     141.079
  H      -59.144    -153.725     139.885

 3  4  5  6  7  8  9  10  11  12  13  23  28  29  30  31  32 0
 6-311+G(2d,p)
 ****
 33  34 0
 6-311+G(2d,p)
 ****
 1  2  14  15  16  17  18  19  20  21  22  24  25  26 0
 3-21G
 ****
 27  35  36  37  38  39  40  41  42  43  44  45 0
 3-21G
 ****


