%nproc=1
%NoSave
%Mem=1900MB
#P OB98/GEN NMR

erre ene a

0 1
  C      108.389    -112.744     -25.660
  O      108.188    -111.580     -24.883
  H      109.445    -112.802     -25.938
  H      107.787    -112.692     -26.572
  H      108.122    -113.636     -25.087
  P      106.741    -111.389     -24.225
  C      105.714    -110.144     -26.295
  O      105.683    -111.270     -25.428
  C      104.832    -110.401     -27.515
  O      105.325    -111.511     -28.291
  C      103.408    -110.803     -27.173
  O      102.647    -109.735     -26.656
  C      102.930    -111.306     -28.526
  O      102.581    -110.216     -29.390
  C      104.197    -112.031     -29.046
  N      104.095    -113.479     -28.936
  C      103.377    -114.119     -29.955
  O      102.887    -113.463     -30.874
  N      103.211    -115.479     -29.886
  C      103.733    -116.146     -28.907
  N      103.523    -117.489     -28.893
  C      104.519    -115.516     -27.828
  C      104.654    -114.193     -27.902
  O      106.807    -109.894     -23.663
  O      106.363    -112.415     -23.208
  H      102.276    -110.616     -30.227
  H      107.069    -109.238     -24.330
  H      104.945    -116.114     -27.035
  H      105.214    -113.653     -27.151
  H      104.379    -111.782     -30.098
  H      102.046    -111.939     -28.440
  H      103.412    -111.654     -26.479
  H      104.856    -109.503     -28.147
  H      102.961    -117.884     -29.638
  H      106.739    -109.914     -26.601
  H      103.853    -118.105     -28.164
  H      105.337    -109.283     -25.732
  P      101.574    -109.984     -25.492
  C       99.797    -110.422     -27.303
  O      100.431    -110.916     -26.127
  O      101.068    -108.753     -24.820
  O      102.328    -110.999     -24.508
  H      102.589    -111.844     -24.917
  H       99.059    -111.123     -27.632
  H      100.528    -110.287     -28.072
  H       99.328    -109.485     -27.088

 6  7  8  9  10  11  12  13  14  15  16  26  30  31  32  33  35 0
 6-311+G(2d,p)
 ****
 37  38 0
 6-311+G(2d,p)
 ****
 1  2  3  4  5  17  18  19  20  21  22  23  24  25 0
 3-21G
 ****
 27  28  29  34  36  39  40  41  42  43  44  45  46 0
 3-21G
 ****


