%nproc=1
%NoSave
%Mem=1900MB
#P OB98/GEN NMR

erre ene a

0 1
  C      -79.336    -247.427    -472.890
  O      -80.354    -248.017    -472.076
  P      -80.656    -249.578    -472.327
  C      -82.470    -249.379    -474.180
  O      -81.134    -249.752    -473.851
  C      -83.064    -250.277    -475.271
  O      -82.352    -250.049    -476.513
  C      -82.990    -251.777    -474.974
  O      -84.179    -252.404    -475.479
  C      -81.833    -252.247    -475.841
  O      -81.904    -253.640    -476.131
  C      -82.004    -251.332    -477.054
  N      -79.590    -253.140    -481.120
  C      -80.872    -253.404    -480.660
  N      -81.597    -254.286    -481.382
  N      -81.387    -252.842    -479.597
  C      -80.557    -251.956    -478.999
  C      -79.274    -251.605    -479.363
  C      -78.701    -252.264    -480.518
  O      -77.551    -252.111    -480.944
  N      -78.752    -250.665    -478.505
  C      -79.711    -250.459    -477.624
  N      -80.823    -251.224    -477.877
  O      -81.979    -249.837    -471.465
  O      -79.538    -250.480    -471.903
  H      -81.929    -254.112    -475.275
  H      -81.824    -250.563    -470.829
  H      -79.233    -253.617    -481.933
  H      -79.646    -249.789    -476.776
  H      -82.836    -251.669    -477.693
  H      -80.883    -252.054    -475.322
  H      -81.285    -254.701    -482.243
  H      -82.854    -252.029    -473.923
  H      -82.554    -254.459    -481.087
  H      -84.105    -249.973    -475.430
  H      -82.482    -248.340    -474.521
  H      -83.079    -249.437    -473.269
  P      -85.332    -252.724    -474.400
  C      -84.506    -255.185    -474.172
  O      -84.776    -253.954    -473.528
  O      -86.493    -253.375    -475.290
  O      -85.798    -251.528    -473.634
  H      -87.362    -253.227    -474.868
  H      -84.523    -255.095    -475.266
  H      -85.262    -255.915    -473.870
  H      -83.518    -255.534    -473.860
  H      -79.227    -246.394    -472.632
  H      -79.611    -247.510    -473.921
  H      -78.409    -247.935    -472.726

 3  4  5  6  7  8  9  10  11  12  23  26  30  31  33  0
 6-311+G(2d,p)
 ****
 35  36  37  38 0
 6-311+G(2d,p)
 ****
 1  2  13  14  15  16  17  18  19  20  21  22  24  25  27  28  29 0
 3-21G
 ****
 32  34  39  40  41  42  43  44  45  46  47  48  49 0
 3-21G
 ****


