%nproc=1
%NoSave
%Mem=1900MB
#P OB98/GEN NMR

erre ene a

0 1
  C      151.558     239.467    -288.458
  O      152.612     240.038    -287.677
  P      152.845     241.617    -287.825
  C      153.388     241.653    -285.285
  O      153.733     242.111    -286.586
  C      154.651     241.352    -284.480
  O      155.263     240.111    -284.893
  C      155.737     242.407    -284.642
  O      155.422     243.579    -283.908
  C      156.954     241.646    -284.130
  O      156.973     241.635    -282.693
  C      156.688     240.226    -284.656
  N      159.918     236.960    -286.909
  C      159.387     236.992    -285.666
  N      158.534     237.899    -285.141
  C      158.227     238.841    -286.048
  C      158.686     238.936    -287.351
  C      159.577     237.938    -287.779
  N      160.130     237.913    -289.039
  N      158.151     240.044    -287.976
  C      157.400     240.618    -287.058
  N      157.405     239.922    -285.881
  O      151.399     242.233    -287.529
  O      153.352     242.023    -289.170
  H      156.149     241.198    -282.395
  H      151.007     242.576    -288.353
  H      159.687     236.185    -285.005
  H      156.839     241.534    -287.199
  H      156.959     239.455    -283.925
  H      157.903     242.076    -284.467
  H      155.868     242.656    -285.703
  H      154.369     241.267    -283.422
  H      152.769     240.754    -285.354
  H      160.821     237.207    -289.240
  H      159.952     238.684    -289.667
  H      152.777     242.419    -284.793
  P      154.489     244.675    -284.615
  C      154.085     246.392    -282.748
  O      154.879     246.043    -283.867
  O      153.059     244.331    -283.995
  O      154.569     244.704    -286.102
  H      153.107     244.188    -283.032
  H      154.476     247.316    -282.317
  H      154.126     245.603    -281.995
  H      153.050     246.557    -283.061
  H      151.505     238.415    -288.271
  H      151.752     239.635    -289.497
  H      150.628     239.924    -288.190

 3  4  5  6  7  8  9  10  11  12  22  25  29  30  31  32 0
 6-311+G(2d,p)
 ****
 33  36  37 0
 6-311+G(2d,p)
 ****
 1  2  13  14  15  16  17  18  19  20  21  23  24  26 0
 3-21G
 ****
 27  28  34  35  38  39  40  41  42  43  44  45  46  47  48 0
 3-21G
 ****


