%nproc=1
%NoSave
%Mem=1900MB
#P OB98/GEN NMR

erre ene a

0 1
  C     -531.332    -592.046       6.404
  O     -530.175    -592.118       7.260
  P     -528.725    -592.303       6.599
  C     -527.067    -593.322       8.336
  O     -527.576    -592.157       7.710
  C     -526.851    -593.106       9.839
  O     -525.972    -591.965      10.063
  C     -528.140    -592.835      10.638
  O     -527.958    -593.395      11.943
  C     -528.164    -591.325      10.715
  O     -528.998    -590.829      11.762
  C     -526.676    -591.034      10.913
  N     -526.283    -589.654      10.614
  C     -526.308    -588.729      11.648
  O     -526.700    -588.979      12.792
  N     -525.888    -587.461      11.334
  C     -525.499    -587.033      10.088
  O     -525.172    -585.873       9.862
  C     -525.523    -588.052       9.030
  C     -525.909    -589.293       9.341
  O     -528.563    -590.938       5.766
  O     -528.579    -593.481       5.688
  H     -528.598    -591.109      12.604
  H     -528.228    -591.140       4.873
  H     -525.897    -586.777      12.078
  H     -525.213    -587.743       8.038
  H     -525.906    -590.055       8.576
  H     -526.390    -591.275      11.943
  H     -528.541    -590.917       9.771
  H     -529.033    -593.259      10.163
  H     -526.333    -593.981      10.242
  H     -526.114    -593.595       7.876
  H     -527.772    -594.152       8.172
  P     -528.782    -594.728      12.326
  C     -530.773    -593.655      13.639
  O     -529.579    -594.412      13.679
  O     -527.574    -595.672      12.823
  O     -529.563    -595.319      11.203
  H     -526.958    -595.209      13.414
  H     -531.393    -593.931      12.790
  H     -530.533    -592.594      13.588
  H     -531.330    -593.845      14.558
  H     -532.211    -591.923       7.002
  H     -531.411    -592.949       5.835
  H     -531.233    -591.213       5.740

 3  4  5  6  7  8  9  10  11  12  13  23  28  29  30  31  32 0
 6-311+G(2d,p)
 ****
 33  34 0
 6-311+G(2d,p)
 ****
 1  2  14  15  16  17  18  19  20  21  22  24  25  26 0
 3-21G
 ****
 27  35  36  37  38  39  40  41  42  43  44  45 0
 3-21G
 ****


