%nproc=1
%NoSave
%Mem=1900MB
#P OB98/GEN NMR

erre ene a

0 1
  C       52.582    -191.582    -147.119
  O       51.619    -192.416    -147.721
  P       51.418    -192.389    -149.313
  C       49.303    -191.497    -150.466
  O       50.433    -191.175    -149.658
  C       48.213    -192.150    -149.622
  O       48.043    -191.438    -148.377
  C       46.838    -192.163    -150.276
  O       46.766    -193.163    -151.274
  C       45.930    -192.399    -149.072
  O       45.894    -193.798    -148.735
  C       46.662    -191.604    -147.978
  N       42.416    -189.216    -146.440
  C       42.660    -190.511    -146.740
  N       43.816    -191.063    -147.188
  C       44.763    -190.131    -147.324
  C       44.647    -188.762    -147.096
  C       43.408    -188.309    -146.614
  N       43.166    -187.004    -146.243
  N       45.840    -188.118    -147.398
  C       46.649    -189.075    -147.806
  N       46.061    -190.306    -147.722
  O       51.062    -193.697    -149.939
  O       52.833    -191.869    -149.862
  H       45.518    -194.268    -149.497
  H       53.226    -192.551    -150.447
  H       41.830    -191.195    -146.599
  H       47.665    -188.926    -148.149
  H       46.675    -192.146    -147.023
  H       44.906    -192.074    -149.247
  H       46.621    -191.175    -150.710
  H       48.532    -193.171    -149.377
  H       49.628    -192.186    -151.254
  H       42.293    -186.821    -145.766
  H       43.960    -186.390    -146.069
  H       48.919    -190.582    -150.939
  P       45.739    -193.001    -152.498
  C       43.579    -194.276    -153.010
  O       44.338    -193.612    -152.019
  O       46.236    -193.477    -153.824
  O       45.452    -191.424    -152.531
  H       45.290    -191.140    -153.451
  H       43.075    -193.532    -153.648
  H       42.818    -194.891    -152.517
  H       44.207    -194.911    -153.631
  H       52.574    -191.735    -146.060
  H       52.352    -190.559    -147.334
  H       53.551    -191.819    -147.506

 3  4  5  6  7  8  9  10  11  12  22  25  29  30  31  32 0
 6-311+G(2d,p)
 ****
 33  36  37 0
 6-311+G(2d,p)
 ****
 1  2  13  14  15  16  17  18  19  20  21  23  24  26 0
 3-21G
 ****
 27  28  34  35  38  39  40  41  42  43  44  45  46  47  48 0
 3-21G
 ****


