%nproc=1
%NoSave
%Mem=1900MB
#P OB98/GEN NMR

erre ene a

0 1
  C      -29.176     136.150     148.834
  O      -28.783     137.502     148.922
  H      -29.842     135.924     149.670
  H      -28.295     135.505     148.901
  H      -29.706     135.951     147.900
  P      -28.105     138.193     147.649
  C      -25.679     137.856     148.463
  O      -26.649     137.542     147.475
  C      -24.378     138.354     147.822
  O      -23.855     137.337     146.935
  C      -24.646     139.595     146.967
  O      -23.509     140.452     146.892
  C      -24.918     139.006     145.592
  O      -24.714     139.938     144.534
  C      -23.946     137.827     145.584
  N      -23.864     135.942     140.851
  C      -23.427     137.168     141.310
  N      -22.922     138.011     140.383
  N      -23.495     137.539     142.562
  C      -24.091     136.624     143.364
  C      -24.588     135.387     143.022
  C      -24.470     134.972     141.641
  O      -24.857     133.904     141.173
  N      -25.138     134.749     144.106
  C      -24.983     135.600     145.099
  N      -24.341     136.747     144.703
  O      -27.764     139.674     148.155
  O      -28.939     138.218     146.403
  H      -23.773     140.194     144.545
  H      -27.716     140.288     147.402
  H      -23.775     135.700     139.879
  H      -25.311     135.434     146.118
  H      -22.944     138.154     145.276
  H      -25.965     138.695     145.553
  H      -23.012     137.840     139.394
  H      -25.499     140.170     147.332
  H      -22.874     139.000     140.643
  H      -23.619     138.527     148.592
  H      -25.488     136.940     149.032
  H      -26.075     138.599     149.158
  P      -23.603     141.874     147.623
  C      -24.269     143.438     145.625
  O      -24.656     142.772     146.813
  O      -22.188     142.549     147.314
  O      -23.874     141.780     149.087
  H      -21.626     142.532     148.110
  H      -25.103     143.982     145.233
  H      -23.941     142.719     144.904
  H      -23.470     144.117     145.841

 6  7  8  9  10  11  12  13  14  15  26  29  33  34 0
 6-311+G(2d,p)
 ****
 36  38  39  40  41 0
 6-311+G(2d,p)
 ****
 1  2  3  4  5  16  17  18  19  20  21  22  23  24  25 0
 3-21G
 ****
 27  28  30  31  32  35  37  42  43  44  45  46  47 0
 3-21G
 ****
 48  49 0
 3-21G
 ****


