%nproc=1
%NoSave
%Mem=1900MB
#P OB98/GEN NMR

erre ene a

0 1
  C      134.136    -246.489    -812.135
  O      134.733    -245.277    -812.607
  P      135.224    -244.227    -811.492
  C      133.973    -242.239    -812.633
  O      135.217    -242.767    -812.169
  C      134.191    -240.913    -813.358
  O      134.950    -241.102    -814.566
  C      132.906    -240.234    -813.806
  O      132.275    -239.534    -812.735
  C      133.431    -239.252    -814.845
  O      133.925    -238.062    -814.195
  C      134.589    -240.041    -815.485
  N      133.285    -239.135    -820.298
  C      133.550    -238.250    -819.266
  N      133.496    -236.928    -819.581
  N      133.860    -238.613    -818.057
  C      133.909    -239.965    -817.900
  C      133.652    -240.943    -818.838
  C      133.285    -240.520    -820.177
  O      133.001    -241.256    -821.113
  N      133.807    -242.199    -818.308
  C      134.186    -241.984    -817.064
  N      134.243    -240.641    -816.762
  O      136.791    -244.551    -811.350
  O      134.502    -244.349    -810.195
  H      133.989    -237.366    -814.886
  H      137.103    -244.307    -810.458
  H      133.048    -238.791    -821.215
  H      134.428    -242.756    -816.342
  H      135.474    -239.410    -815.626
  H      132.661    -238.934    -815.552
  H      133.346    -236.574    -820.516
  H      132.221    -240.948    -814.286
  H      133.734    -236.260    -818.852
  H      134.752    -240.243    -812.691
  H      133.304    -242.087    -811.780
  H      133.497    -242.979    -813.280
  P      130.823    -240.056    -812.275
  C      129.634    -237.781    -812.715
  O      130.045    -238.748    -811.763
  O      131.139    -240.874    -810.935
  O      130.112    -240.877    -813.293
  H      130.468    -241.577    -810.810
  H      129.211    -238.255    -813.606
  H      130.496    -237.161    -813.000
  H      128.875    -237.140    -812.261
  H      133.855    -247.097    -812.970
  H      133.268    -246.256    -811.555
  H      134.839    -247.020    -811.528

 3  4  5  6  7  8  9  10  11  12  23  26  30  31  33  0
 6-311+G(2d,p)
 ****
 35  36  37  38 0
 6-311+G(2d,p)
 ****
 1  2  13  14  15  16  17  18  19  20  21  22  24  25  27  28  29 0
 3-21G
 ****
 32  34  39  40  41  42  43  44  45  46  47  48  49 0
 3-21G
 ****


