%nproc=1
%NoSave
%Mem=1900MB
#P OB98/GEN NMR

erre ene a

0 1
  C      508.834     112.315     372.713
  O      509.080     112.297     371.323
  H      508.898     113.351     373.065
  H      509.584     111.721     373.239
  H      507.834     111.933     372.937
  P      508.883     110.922     370.524
  C      511.390     111.019     369.934
  O      510.321     110.221     370.435
  C      512.181     110.229     368.893
  O      512.408     108.883     369.363
  C      511.465     110.080     367.557
  O      511.507     111.278     366.807
  C      512.227     108.914     366.953
  O      513.450     109.349     366.352
  C      512.508     108.036     368.195
  N      511.594     106.898     368.283
  C      511.942     105.773     367.547
  O      512.959     105.697     366.856
  N      511.042     104.740     367.580
  C      509.800     104.786     368.145
  O      508.936     103.940     367.937
  C      509.514     105.975     368.964
  C      510.406     106.969     368.982
  O      508.148     111.027     369.231
  O      508.099     109.992     371.568
  H      507.154     109.962     371.325
  H      513.939     109.822     367.055
  H      511.267     103.934     367.012
  H      508.569     106.018     369.484
  H      510.204     107.871     369.551
  H      513.539     107.656     368.166
  H      511.637     108.407     366.187
  H      510.427     109.778     367.728
  H      513.157     110.715     368.760
  H      512.048     111.285     370.769
  H      510.978     111.933     369.498
  P      510.605     111.444     365.495
  C      512.071     110.009     363.951
  O      510.801     110.143     364.582
  O      510.757     112.744     364.777
  O      509.102     111.270     366.034
  H      508.562     112.011     365.702
  H      512.088     109.110     363.371
  H      512.837     109.967     364.697
  H      512.242     110.849     363.311

 6  7  8  9  10  11  12  13  14  15  16  27  31  32  33  34  35 0
 6-311+G(2d,p)
 ****
 36  37 0
 6-311+G(2d,p)
 ****
 1  2  3  4  5  17  18  19  20  21  22  23  24  25 0
 3-21G
 ****
 26  28  29  30  38  39  40  41  42  43  44  45 0
 3-21G
 ****


