%nproc=1
%NoSave
%Mem=1900MB
#P OB98/GEN NMR

erre ene a

0 1
  C      567.508    -403.384     193.120
  O      566.215    -403.654     192.615
  H      568.043    -402.766     192.394
  H      568.061    -404.317     193.257
  H      567.452    -402.842     194.065
  P      565.163    -404.405     193.561
  C      564.689    -406.473     192.097
  O      565.314    -405.978     193.275
  C      565.095    -407.925     191.868
  O      566.404    -407.983     191.255
  C      565.212    -408.743     193.147
  O      563.940    -409.089     193.662
  C      566.056    -409.909     192.671
  O      565.251    -410.893     192.006
  C      567.012    -409.230     191.665
  N      568.341    -409.002     192.239
  C      569.403    -409.631     191.604
  O      569.271    -410.338     190.601
  N      570.629    -409.474     192.191
  C      570.860    -408.883     193.406
  O      571.926    -408.980     194.003
  C      569.716    -408.180     193.997
  C      568.523    -408.282     193.407
  O      563.763    -403.884     193.516
  O      565.794    -404.247     195.028
  H      565.319    -403.541     195.506
  H      565.833    -411.670     191.865
  H      571.401    -409.964     191.754
  H      569.874    -407.640     194.924
  H      567.650    -407.801     193.848
  H      567.123    -409.840     190.761
  H      566.569    -410.402     193.495
  H      565.781    -408.176     193.900
  H      564.375    -408.384     191.175
  H      565.013    -405.867     191.242
  H      563.602    -406.386     192.202
  P      563.816    -409.913     195.031
  C      562.838    -412.050     193.988
  O      563.939    -411.478     194.691
  O      562.651    -409.547     195.891
  O      565.203    -409.608     195.788
  H      565.002    -409.330     196.703
  H      563.026    -413.089     193.816
  H      562.715    -411.550     193.050
  H      561.947    -411.940     194.570

 6  7  8  9  10  11  12  13  14  15  16  27  31  32  33  34  35 0
 6-311+G(2d,p)
 ****
 36  37 0
 6-311+G(2d,p)
 ****
 1  2  3  4  5  17  18  19  20  21  22  23  24  25 0
 3-21G
 ****
 26  28  29  30  38  39  40  41  42  43  44  45 0
 3-21G
 ****


