%nproc=1
%NoSave
%Mem=1900MB
#P OB98/GEN NMR

erre ene a

0 1
  C     1015.776     -34.012     389.697
  O     1014.634     -34.683     390.189
  H     1015.449     -33.238     388.995
  H     1016.421     -34.716     389.167
  H     1016.327     -33.539     390.515
  P     1014.847     -35.703     391.405
  C     1013.109     -34.902     393.165
  O     1014.467     -34.902     392.746
  C     1012.552     -33.478     393.132
  O     1012.605     -32.993     391.758
  C     1011.096     -33.367     393.602
  O     1010.944     -32.127     394.302
  C     1010.322     -33.301     392.300
  O     1009.043     -32.688     392.420
  C     1011.293     -32.503     391.423
  N     1011.022     -32.664     389.996
  C     1010.034     -31.857     389.441
  O     1009.435     -30.968     390.039
  N     1009.739     -32.110     388.122
  C     1010.303     -33.074     387.343
  O     1009.982     -33.265     386.176
  C     1011.332     -33.898     387.987
  C     1011.640     -33.660     389.266
  O     1016.441     -35.833     391.492
  O     1014.173     -37.027     391.261
  H     1016.753     -36.558     390.922
  H     1008.473     -33.290     392.938
  H     1009.025     -31.536     387.708
  H     1011.800     -34.680     387.401
  H     1012.381     -34.264     389.776
  H     1011.261     -31.442     391.688
  H     1010.176     -34.313     391.903
  H     1010.766     -34.195     394.237
  H     1013.208     -32.831     393.725
  H     1013.046     -35.285     394.190
  H     1012.529     -35.556     392.508
  P     1011.505     -32.057     395.805
  C     1012.994     -29.938     395.419
  O     1012.929     -31.329     395.699
  O     1011.861     -33.593     396.078
  O     1010.534     -31.452     396.764
  H     1012.190     -34.049     395.282
  H     1014.018     -29.628     395.386
  H     1012.482     -29.395     396.186
  H     1012.532     -29.742     394.474

 6  7  8  9  10  11  12  13  14  15  16  27  31  32  33  34  35 0
 6-311+G(2d,p)
 ****
 36  37 0
 6-311+G(2d,p)
 ****
 1  2  3  4  5  17  18  19  20  21  22  23  24  25 0
 3-21G
 ****
 26  28  29  30  38  39  40  41  42  43  44  45 0
 3-21G
 ****


