%nproc=1
%NoSave
%Mem=1900MB
#P OB98/GEN NMR

erre ene a

0 1
  C     -511.891     485.103     465.728
  O     -511.539     484.676     464.421
  P     -510.824     485.690     463.402
  C     -509.261     485.391     461.374
  O     -510.183     484.756     462.263
  C     -508.793     484.411     460.293
  O     -508.041     483.326     460.883
  C     -509.916     483.759     459.504
  O     -510.455     484.654     458.552
  C     -509.208     482.556     458.916
  O     -508.489     482.905     457.731
  C     -508.231     482.161     460.054
  N     -508.704     481.017     460.825
  C     -508.207     479.774     460.429
  O     -507.439     479.682     459.473
  N     -508.614     478.646     461.118
  C     -509.483     478.764     462.074
  N     -509.860     477.613     462.710
  C     -510.060     480.058     462.497
  C     -509.630     481.120     461.830
  O     -509.898     486.680     464.023
  O     -512.063     486.366     462.648
  H     -509.168     483.056     457.036
  H     -512.524     487.029     463.227
  H     -510.773     480.107     463.306
  H     -510.006     482.119     462.070
  H     -507.248     481.907     459.640
  H     -509.910     481.752     458.646
  H     -510.706     483.413     460.197
  H     -508.122     484.956     459.609
  H     -509.461     476.749     462.369
  H     -508.393     485.724     461.954
  H     -510.549     477.588     463.442
  H     -509.740     486.270     460.925
  P     -511.659     484.202     457.605
  C     -513.921     485.148     456.819
  O     -512.735     485.392     457.580
  O     -512.225     482.842     457.893
  O     -511.022     484.253     456.137
  H     -511.293     483.446     455.646
  H     -514.683     485.865     457.145
  H     -514.277     484.144     456.970
  H     -513.702     485.307     455.766
  H     -512.354     484.295     466.255
  H     -512.574     485.924     465.663
  H     -511.011     485.412     466.251

 3  4  5  6  7  8  9  10  11  12  13  23  27  28  29  30  32 0
 6-311+G(2d,p)
 ****
 34  35 0
 6-311+G(2d,p)
 ****
 1  2  14  15  16  17  18  19  20  21  22  24  25  26 0
 3-21G
 ****
 31  33  36  37  38  39  40  41  42  43  44  45  46 0
 3-21G
 ****


