%nproc=1
%NoSave
%Mem=1900MB
#P OB98/GEN NMR

erre ene a

0 1
  C      199.855    -277.685     247.210
  O      199.741    -276.849     248.340
  H      199.297    -277.230     246.386
  H      199.421    -278.667     247.416
  H      200.900    -277.791     246.910
  P      200.432    -277.296     249.719
  C      202.976    -277.039     249.935
  O      201.731    -276.356     249.866
  C      204.133    -276.056     250.116
  O      204.197    -275.164     248.970
  C      204.012    -275.182     251.374
  O      205.260    -275.163     252.071
  C      203.717    -273.797     250.820
  O      204.096    -272.749     251.708
  C      204.473    -273.851     249.488
  N      204.058    -272.792     248.578
  C      204.882    -271.664     248.530
  O      205.896    -271.602     249.226
  N      204.511    -270.607     247.737
  C      203.391    -270.656     247.088
  N      203.065    -269.562     246.346
  C      202.477    -271.815     247.133
  C      202.871    -272.841     247.886
  O      200.692    -278.758     249.841
  O      199.462    -276.734     250.864
  H      203.650    -272.894     252.569
  H      199.610    -277.250     251.688
  H      201.549    -271.803     246.577
  H      202.267    -273.736     247.984
  H      205.558    -273.769     249.651
  H      202.637    -273.705     250.629
  H      203.228    -275.516     252.055
  H      205.073    -276.621     250.117
  H      203.718    -268.786     246.349
  H      203.108    -277.620     249.014
  H      202.210    -269.475     245.819
  H      202.950    -277.720     250.790
  P      205.452    -276.279     253.209
  C      206.319    -278.725     253.298
  O      205.849    -277.659     252.488
  O      203.961    -276.531     253.734
  O      206.360    -275.852     254.313
  H      203.864    -276.177     254.638
  H      206.541    -279.571     252.681
  H      205.566    -278.991     254.010
  H      207.204    -278.417     253.814

 6  7  8  9  10  11  12  13  14  15  16  26  30  31  32  33  35 0
 6-311+G(2d,p)
 ****
 37  38 0
 6-311+G(2d,p)
 ****
 1  2  3  4  5  17  18  19  20  21  22  23  24  25 0
 3-21G
 ****
 27  28  29  34  36  39  40  41  42  43  44  45  46 0
 3-21G
 ****


