%nproc=1
%NoSave
%Mem=1900MB
#P OB98/GEN NMR

erre ene a

0 1
  C      -56.468      -9.600     -30.190
  O      -56.533     -10.069     -31.523
  H      -56.904      -8.598     -30.148
  H      -55.425      -9.544     -29.867
  H      -57.030     -10.259     -29.524
  P      -56.158     -11.609     -31.754
  C      -57.011     -13.883     -30.764
  O      -56.964     -12.466     -30.657
  C      -57.011     -14.513     -29.375
  O      -55.850     -14.102     -28.626
  C      -58.174     -14.087     -28.496
  O      -59.397     -14.667     -28.893
  C      -57.690     -14.567     -27.134
  O      -57.988     -15.952     -26.923
  C      -56.161     -14.345     -27.233
  N      -55.716     -13.267     -26.370
  C      -55.537     -13.612     -25.024
  O      -55.737     -14.768     -24.651
  N      -55.176     -12.632     -24.138
  C      -55.034     -11.411     -24.549
  N      -54.707     -10.481     -23.612
  C      -55.214     -11.005     -25.958
  C      -55.553     -11.974     -26.807
  O      -54.648     -11.678     -31.235
  O      -56.347     -12.096     -33.151
  H      -57.629     -16.432     -27.697
  H      -54.514     -11.271     -30.363
  H      -55.071      -9.976     -26.253
  H      -55.705     -11.765     -27.860
  H      -55.621     -15.257     -26.948
  H      -58.162     -14.012     -26.320
  H      -58.244     -12.992     -28.466
  H      -56.980     -15.604     -29.495
  H      -54.648     -10.792     -22.650
  H      -56.163     -14.252     -31.349
  H      -54.648      -9.491     -23.801
  H      -57.927     -14.145     -31.303
  P      -60.785     -13.893     -28.707
  C      -61.934     -12.010     -30.037
  O      -60.695     -12.561     -29.602
  O      -61.200     -13.655     -27.294
  O      -61.814     -14.788     -29.547
  H      -61.599     -14.883     -30.490
  H      -61.749     -11.132     -30.620
  H      -62.529     -11.753     -29.185
  H      -62.455     -12.730     -30.632

 6  7  8  9  10  11  12  13  14  15  16  26  30  31  32  33  35 0
 6-311+G(2d,p)
 ****
 37  38 0
 6-311+G(2d,p)
 ****
 1  2  3  4  5  17  18  19  20  21  22  23  24  25 0
 3-21G
 ****
 27  28  29  34  36  39  40  41  42  43  44  45  46 0
 3-21G
 ****


