%nproc=1
%NoSave
%Mem=1900MB
#P OB98/GEN NMR

erre ene a

0 1
  C      -59.978      38.821     153.650
  O      -59.400      38.556     152.383
  P      -60.378      38.381     151.126
  C      -60.702      35.805     151.101
  O      -61.277      37.074     151.376
  C      -61.376      35.153     149.891
  O      -60.527      34.093     149.375
  C      -62.737      34.528     150.212
  O      -63.599      34.658     149.069
  C      -62.421      33.056     150.374
  O      -63.572      32.244     150.148
  C      -61.311      32.885     149.337
  N      -61.317      27.923     150.292
  C      -62.332      28.724     149.808
  N      -63.535      28.134     149.640
  N      -62.180      29.987     149.511
  C      -60.923      30.443     149.737
  C      -59.832      29.741     150.199
  C      -60.019      28.348     150.536
  O      -59.168      27.592     150.996
  N      -58.717      30.536     150.267
  C      -59.138      31.728     149.886
  N      -60.478      31.730     149.592
  O      -59.378      37.930     149.957
  O      -61.127      39.612     150.743
  H      -64.231      32.491     150.825
  H      -59.230      38.674     149.345
  H      -61.488      26.956     150.518
  H      -58.527      32.620     149.832
  H      -61.719      32.788     148.324
  H      -62.060      32.859     151.389
  H      -63.735      27.183     149.913
  H      -63.236      34.950     151.091
  H      -64.307      28.709     149.328
  H      -61.471      35.903     149.098
  H      -60.831      35.159     151.971
  H      -59.629      35.921     150.917
  P      -64.937      35.519     149.292
  C      -66.355      33.515     150.152
  O      -65.758      34.763     150.438
  O      -65.782      35.232     147.965
  O      -64.696      36.976     149.511
  H      -66.395      35.971     147.787
  H      -65.896      32.750     150.787
  H      -66.235      33.225     149.105
  H      -67.422      33.571     150.380
  H      -59.204      38.912     154.383
  H      -60.632      38.018     153.919
  H      -60.535      39.734     153.604

 3  4  5  6  7  8  9  10  11  12  23  26  30  31 0
 6-311+G(2d,p)
 ****
 33  35  36  37  38 0
 6-311+G(2d,p)
 ****
 1  2  13  14  15  16  17  18  19  20  21  22  24  25 0
 3-21G
 ****
 27  28  29  32  34  39  40  41  42  43  44  45  46  47  48  49 0
 3-21G
 ****


