%nproc=1
%NoSave
%Mem=1900MB
#P OB98/GEN NMR

erre ene a

0 1
  C     -128.542      60.572      44.547
  O     -127.971      59.791      45.579
  H     -128.751      59.924      43.693
  H     -127.837      61.346      44.236
  H     -129.475      61.029      44.884
  P     -127.669      60.537      46.968
  C     -129.115      61.490      48.898
  O     -129.089      60.730      47.698
  C     -130.003      60.816      49.944
  O     -131.385      60.846      49.479
  C     -129.646      59.346      50.223
  O     -129.888      59.087      51.612
  C     -130.683      58.584      49.412
  O     -130.873      57.251      49.879
  C     -131.893      59.500      49.593
  N     -135.436      56.190      48.248
  C     -134.580      56.197      49.333
  N     -134.681      55.161      50.194
  N     -133.701      57.137      49.555
  C     -133.731      58.128      48.630
  C     -134.525      58.236      47.511
  C     -135.477      57.171      47.263
  O     -136.248      57.101      46.310
  N     -134.232      59.379      46.808
  C     -133.268      59.958      47.502
  N     -132.928      59.239      48.614
  O     -127.282      62.015      46.494
  O     -126.599      59.919      47.806
  H     -131.329      57.299      50.744
  H     -126.314      62.096      46.393
  H     -136.087      55.434      48.118
  H     -132.780      60.889      47.241
  H     -132.355      59.390      50.582
  H     -130.380      58.538      48.358
  H     -135.366      54.427      50.115
  H     -128.616      59.075      49.970
  H     -134.092      55.172      51.020
  H     -129.969      61.407      50.864
  H     -129.514      62.487      48.678
  H     -128.096      61.589      49.284
  P     -128.626      59.008      52.596
  C     -127.743      60.702      54.363
  O     -128.257      60.500      53.053
  O     -127.424      58.634      51.601
  O     -128.766      58.007      53.695
  H     -126.734      58.146      52.087
  H     -127.548      61.743      54.513
  H     -126.834      60.149      54.479
  H     -128.460      60.366      55.083

 6  7  8  9  10  11  12  13  14  15  26  29  33  34 0
 6-311+G(2d,p)
 ****
 36  38  39  40  41 0
 6-311+G(2d,p)
 ****
 1  2  3  4  5  16  17  18  19  20  21  22  23  24  25 0
 3-21G
 ****
 27  28  30  31  32  35  37  42  43  44  45  46  47 0
 3-21G
 ****
 48  49 0
 3-21G
 ****


