%nproc=1
%NoSave
%Mem=1900MB
#P OB98/GEN NMR

erre ene a

0 1
  C       60.231    -353.124    -585.920
  O       59.401    -354.078    -586.549
  H       59.773    -352.131    -586.018
  H       61.217    -353.104    -586.390
  H       60.339    -353.358    -584.855
  P       59.960    -355.582    -586.605
  C       57.716    -356.138    -585.381
  O       58.637    -356.482    -586.413
  C       56.313    -356.019    -585.970
  O       56.222    -354.887    -586.850
  C       55.878    -357.218    -586.798
  O       55.466    -358.320    -586.002
  C       54.722    -356.616    -587.585
  O       53.569    -356.508    -586.715
  C       55.293    -355.224    -587.923
  N       55.969    -355.189    -589.220
  C       55.345    -354.438    -590.231
  O       54.282    -353.856    -590.018
  N       55.936    -354.394    -591.471
  C       57.052    -355.027    -591.687
  N       57.582    -354.963    -592.952
  C       57.743    -355.806    -590.645
  C       57.163    -355.847    -589.450
  O       60.708    -355.762    -585.195
  O       60.795    -355.932    -587.795
  H       53.179    -357.400    -586.650
  H       60.978    -356.707    -585.077
  H       58.674    -356.329    -590.890
  H       57.608    -356.400    -588.644
  H       54.505    -354.461    -587.920
  H       54.421    -357.216    -588.437
  H       56.658    -357.524    -587.507
  H       55.607    -355.832    -585.134
  H       57.046    -354.464    -593.649
  H       58.027    -355.181    -584.944
  H       58.341    -355.558    -593.258
  H       57.721    -356.902    -584.602
  P       55.432    -359.776    -586.699
  C       56.411    -360.839    -584.537
  O       55.386    -360.862    -585.518
  O       56.920    -359.938    -587.284
  O       54.392    -359.944    -587.759
  H       56.919    -360.367    -588.151
  H       56.240    -361.619    -583.824
  H       56.406    -359.892    -584.038
  H       57.360    -360.988    -585.009

 6  7  8  9  10  11  12  13  14  15  16  26  30  31  32  33  35 0
 6-311+G(2d,p)
 ****
 37  38 0
 6-311+G(2d,p)
 ****
 1  2  3  4  5  17  18  19  20  21  22  23  24  25 0
 3-21G
 ****
 27  28  29  34  36  39  40  41  42  43  44  45  46 0
 3-21G
 ****


