%nproc=1
%NoSave
%Mem=1900MB
#P OB98/GEN NMR

erre ene a

0 1
  C      112.222    -141.722     -97.003
  O      113.412    -141.151     -97.505
  H      112.063    -141.363     -95.982
  H      112.308    -142.811     -96.983
  H      111.369    -141.425     -97.619
  P      113.835    -141.555     -99.001
  C      114.930    -143.769     -98.206
  O      113.935    -143.161     -99.019
  C      115.871    -144.619     -99.063
  O      115.077    -145.558     -99.844
  C      116.724    -143.802    -100.047
  O      118.025    -144.393    -100.129
  C      116.006    -144.003    -101.371
  O      116.866    -143.792    -102.486
  C      115.516    -145.440    -101.212
  N      114.544    -146.798    -105.962
  C      115.749    -146.603    -105.313
  N      116.871    -146.795    -106.040
  N      115.845    -146.247    -104.059
  C      114.643    -146.115    -103.444
  C      113.385    -146.268    -103.977
  C      113.291    -146.641    -105.372
  O      112.254    -146.805    -106.010
  N      112.418    -146.009    -103.036
  C      113.090    -145.702    -101.940
  N      114.444    -145.757    -102.139
  O      115.366    -141.090     -99.095
  O      112.999    -140.966    -100.087
  H      116.356    -143.996    -103.301
  H      115.596    -140.839    -100.009
  H      114.526    -147.062    -106.932
  H      112.650    -145.435    -100.989
  H      116.314    -146.175    -101.384
  H      115.161    -143.309    -101.452
  H      116.876    -147.102    -107.000
  H      116.814    -142.747     -99.775
  H      117.768    -146.671    -105.579
  H      116.504    -145.219     -98.397
  H      114.442    -144.406     -97.460
  H      115.502    -142.988     -97.693
  P      119.239    -143.618     -99.422
  C      119.179    -141.624    -101.083
  O      119.098    -142.048     -99.731
  O      120.506    -144.057    -100.300
  O      119.429    -143.974     -97.984
  H      121.063    -144.672     -99.789
  H      119.068    -140.561    -101.131
  H      118.400    -142.089    -101.650
  H      120.130    -141.902    -101.488

 6  7  8  9  10  11  12  13  14  15  26  29  33  34 0
 6-311+G(2d,p)
 ****
 36  38  39  40  41 0
 6-311+G(2d,p)
 ****
 1  2  3  4  5  16  17  18  19  20  21  22  23  24  25 0
 3-21G
 ****
 27  28  30  31  32  35  37  42  43  44  45  46  47 0
 3-21G
 ****
 48  49 0
 3-21G
 ****


