%nproc=1
%NoSave
%Mem=1900MB
#P OB98/GEN NMR

erre ene a

0 1
  C      107.187      17.800     -84.819
  O      108.316      16.972     -84.626
  H      107.512      18.726     -85.300
  H      106.732      18.049     -83.857
  H      106.452      17.311     -85.463
  P      108.096      15.484     -84.075
  C      106.462      14.759     -82.215
  O      107.534      15.618     -82.581
  C      106.001      15.079     -80.795
  O      105.820      16.504     -80.639
  C      104.665      14.450     -80.424
  O      104.809      13.071     -80.143
  C      104.267      15.305     -79.233
  O      104.934      14.867     -78.039
  C      104.769      16.700     -79.667
  N      103.703      17.545     -80.203
  C      103.281      18.597     -79.397
  O      103.734      18.812     -78.273
  N      102.288      19.386     -79.917
  C      101.616      19.161     -81.082
  O      100.672      19.847     -81.460
  C      102.088      18.021     -81.882
  C      103.094      17.280     -81.414
  O      109.255      14.558     -84.233
  O      106.818      14.965     -84.891
  H      104.752      13.911     -77.958
  H      107.107      14.339     -85.581
  H      101.959      20.144     -79.341
  H      101.590      17.821     -82.819
  H      103.452      16.432     -81.986
  H      105.223      17.222     -78.815
  H      103.196      15.265     -79.035
  H      103.939      14.606     -81.230
  H      106.789      14.762     -80.099
  H      106.811      13.722     -82.260
  H      105.642      14.890     -82.929
  P      103.628      12.055     -80.506
  C      101.121      11.902     -79.964
  O      102.394      12.373     -79.533
  O      104.021      10.618     -80.579
  O      103.106      12.572     -81.928
  H      103.220      11.864     -82.591
  H      100.378      12.170     -79.242
  H      101.151      10.837     -80.067
  H      100.877      12.345     -80.907

 6  7  8  9  10  11  12  13  14  15  16  26  31  32  33  34  35 0
 6-311+G(2d,p)
 ****
 36  37 0
 6-311+G(2d,p)
 ****
 1  2  3  4  5  17  18  19  20  21  22  23  24  25 0
 3-21G
 ****
 27  28  29  30  38  39  40  41  42  43  44  45 0
 3-21G
 ****


