%nproc=1
%NoSave
%Mem=1900MB
#P OB98/GEN NMR

erre ene a

0 1
  C      385.245    -123.552     510.767
  O      384.642    -122.325     511.150
  P      383.461    -122.270     512.228
  C      384.485    -120.033     512.991
  O      383.294    -120.715     512.607
  C      384.221    -118.551     513.260
  O      384.149    -117.834     511.993
  C      382.916    -118.264     514.027
  O      383.174    -117.112     514.845
  C      381.943    -117.915     512.915
  O      380.806    -117.195     513.373
  C      382.871    -117.148     511.952
  N      382.321    -117.080     510.603
  C      382.175    -115.798     510.047
  O      382.433    -114.797     510.719
  N      381.696    -115.689     508.760
  C      381.300    -116.750     508.136
  N      380.827    -116.577     506.865
  C      381.315    -118.098     508.733
  C      381.844    -118.190     509.955
  O      383.608    -123.188     513.389
  O      382.140    -122.543     511.357
  H      380.091    -117.288     512.707
  H      382.061    -123.515     511.148
  H      380.918    -118.944     508.188
  H      381.903    -119.140     510.471
  H      383.040    -116.124     512.316
  H      381.587    -118.842     512.439
  H      382.574    -119.103     514.640
  H      385.076    -118.148     513.812
  H      380.851    -115.633     506.486
  H      385.202    -120.118     512.162
  H      380.572    -117.336     506.264
  H      384.929    -120.515     513.871
  P      383.226    -117.219     516.443
  C      385.085    -115.476     516.721
  O      383.731    -115.798     516.985
  O      383.971    -118.399     516.974
  O      381.678    -117.253     516.883
  H      381.614    -117.573     517.805
  H      385.231    -114.407     516.886
  H      385.346    -115.716     515.688
  H      385.733    -116.032     517.401
  H      386.007    -123.363     510.040
  H      384.503    -124.198     510.346
  H      385.679    -124.019     511.626

 3  4  5  6  7  8  9  10  11  12  13  23  27  28  29  30  32 0
 6-311+G(2d,p)
 ****
 34  35 0
 6-311+G(2d,p)
 ****
 1  2  14  15  16  17  18  19  20  21  22  24  25  26 0
 3-21G
 ****
 31  33  36  37  38  39  40  41  42  43  44  45  46 0
 3-21G
 ****


