%nproc=1
%NoSave
%Mem=1900MB
#P OB98/GEN NMR

erre ene a

0 1
  C      -81.652    -290.615     138.579
  O      -82.599    -291.683     138.440
  P      -82.212    -293.082     137.760
  C      -81.275    -294.194     139.888
  O      -82.277    -294.235     138.876
  C      -81.281    -295.462     140.746
  O      -80.052    -295.585     141.489
  C      -82.406    -295.524     141.775
  O      -83.626    -295.894     141.161
  C      -81.848    -296.543     142.764
  O      -82.065    -297.879     142.286
  C      -80.350    -296.206     142.754
  N      -78.112    -296.049     147.349
  C      -78.329    -297.063     146.485
  N      -78.937    -297.028     145.280
  C      -79.321    -295.775     144.981
  C      -79.170    -294.640     145.766
  C      -78.534    -294.809     147.007
  N      -78.327    -293.777     147.892
  N      -79.712    -293.538     145.139
  C      -80.164    -293.994     143.988
  N      -79.950    -295.341     143.845
  O      -80.934    -293.056     136.982
  O      -83.450    -293.426     136.802
  H      -81.655    -298.490     142.926
  H      -83.147    -293.973     136.055
  H      -77.965    -298.037     146.802
  H      -80.647    -293.397     143.226
  H      -79.732    -297.110     142.811
  H      -82.312    -296.469     143.753
  H      -82.510    -294.554     142.274
  H      -81.338    -296.323     140.066
  H      -81.461    -293.320     140.524
  H      -77.895    -293.985     148.777
  H      -78.682    -292.858     147.666
  H      -80.297    -294.073     139.405
  P      -84.921    -294.967     141.324
  C      -84.584    -293.051     139.648
  O      -85.207    -294.299     139.894
  O      -84.893    -294.017     142.474
  O      -86.124    -296.018     141.466
  H      -86.831    -295.622     142.012
  H      -85.153    -292.258     140.135
  H      -84.570    -292.876     138.570
  H      -83.554    -293.050     140.022
  H      -82.122    -289.781     139.057
  H      -81.302    -290.320     137.612
  H      -80.825    -290.946     139.172

 3  4  5  6  7  8  9  10  11  12  22  25  29  30  31  32 0
 6-311+G(2d,p)
 ****
 33  36  37 0
 6-311+G(2d,p)
 ****
 1  2  13  14  15  16  17  18  19  20  21  23  24  26 0
 3-21G
 ****
 27  28  34  35  38  39  40  41  42  43  44  45  46  47  48 0
 3-21G
 ****


