%nproc=1
%NoSave
%Mem=1900MB
#P OB98/GEN NMR

erre ene a

0 1
  C      448.532    -119.140    -824.242
  O      449.944    -119.169    -824.293
  H      448.230    -118.605    -823.341
  H      448.146    -120.161    -824.194
  H      448.115    -118.628    -825.112
  P      450.655    -119.565    -825.669
  C      450.980    -122.051    -825.020
  O      450.370    -121.127    -825.918
  C      450.191    -123.362    -824.958
  O      450.259    -124.029    -826.244
  C      450.814    -124.307    -823.929
  O      449.852    -125.193    -823.357
  C      451.797    -125.119    -824.761
  O      452.140    -126.367    -824.167
  C      451.028    -125.242    -826.077
  N      453.712    -128.540    -828.896
  C      453.064    -128.742    -827.694
  N      453.160    -129.978    -827.161
  N      452.394    -127.803    -827.062
  C      452.444    -126.597    -827.671
  C      453.079    -126.270    -828.854
  C      453.779    -127.315    -829.565
  O      454.379    -127.186    -830.624
  N      452.914    -124.933    -829.151
  C      452.206    -124.461    -828.151
  N      451.877    -125.438    -827.237
  O      452.221    -119.555    -825.310
  O      450.361    -118.681    -826.842
  H      451.331    -126.907    -824.135
  H      452.752    -119.398    -826.103
  H      454.199    -129.290    -829.343
  H      451.892    -123.423    -828.041
  H      450.329    -126.084    -826.036
  H      452.724    -124.534    -824.856
  H      453.806    -130.670    -827.517
  H      451.313    -123.768    -823.127
  H      452.955    -130.069    -826.160
  H      449.129    -123.162    -824.765
  H      450.998    -121.575    -824.029
  H      452.015    -122.235    -825.315
  P      449.000    -124.653    -822.104
  C      450.186    -125.815    -820.059
  O      449.983    -124.637    -820.833
  O      447.985    -125.849    -821.804
  O      448.302    -123.365    -822.362
  H      447.091    -125.616    -822.102
  H      450.869    -125.605    -819.262
  H      450.590    -126.586    -820.682
  H      449.251    -126.140    -819.652

 6  7  8  9  10  11  12  13  14  15  26  29  33  34 0
 6-311+G(2d,p)
 ****
 36  38  39  40  41 0
 6-311+G(2d,p)
 ****
 1  2  3  4  5  16  17  18  19  20  21  22  23  24  25 0
 3-21G
 ****
 27  28  30  31  32  35  37  42  43  44  45  46  47 0
 3-21G
 ****
 48  49 0
 3-21G
 ****


