%nproc=1
%NoSave
%Mem=1900MB
#P OB98/GEN NMR

erre ene a

0 1
  C     -144.576     -45.066    1262.155
  O     -145.649     -45.985    1262.092
  P     -145.374     -47.552    1261.956
  C     -146.677     -49.710    1262.466
  O     -146.722     -48.290    1262.400
  C     -147.850     -50.239    1263.304
  O     -147.680     -49.891    1264.713
  C     -149.198     -49.648    1262.936
  O     -149.715     -49.979    1261.656
  C     -150.028     -50.038    1264.141
  O     -150.483     -51.398    1264.055
  C     -149.007     -49.874    1265.285
  N     -149.247     -48.658    1266.078
  C     -149.815     -48.857    1267.324
  O     -150.105     -49.977    1267.790
  N     -150.070     -47.725    1268.058
  C     -149.854     -46.435    1267.644
  O     -150.153     -45.458    1268.307
  C     -149.278     -46.294    1266.293
  C     -148.988     -47.395    1265.580
  O     -144.139     -48.047    1262.637
  O     -145.365     -47.782    1260.367
  H     -151.086     -51.546    1264.813
  H     -146.189     -47.550    1259.921
  H     -150.492     -47.847    1268.978
  H     -149.082     -45.287    1265.939
  H     -148.567     -47.324    1264.598
  H     -149.066     -50.746    1265.971
  H     -150.930     -49.406    1264.235
  H     -149.118     -48.569    1262.938
  H     -147.843     -51.332    1263.244
  H     -145.729     -50.017    1262.943
  H     -146.706     -50.133    1261.453
  P     -150.937     -49.206    1260.975
  C     -151.803     -48.765    1258.557
  O     -150.771     -49.292    1259.375
  O     -151.296     -47.879    1261.577
  O     -152.156     -50.239    1261.219
  H     -152.974     -49.719    1261.326
  H     -151.529     -48.946    1257.518
  H     -151.904     -47.684    1258.700
  H     -152.756     -49.269    1258.769
  H     -144.962     -44.072    1262.244
  H     -143.989     -45.142    1261.264
  H     -143.965     -45.289    1263.005

 3  4  5  6  7  8  9  10  11  12  13  23  28  29  30  31  32 0
 6-311+G(2d,p)
 ****
 33  34 0
 6-311+G(2d,p)
 ****
 1  2  14  15  16  17  18  19  20  21  22  24  25  26  27 0
 3-21G
 ****
 35  36  37  38  39  40  41  42  43  44  45 0
 3-21G
 ****


