%nproc=1
%NoSave
%Mem=1900MB
#P OB98/GEN NMR

erre ene a

0 1
  C      235.287      -5.121      12.615
  O      234.548      -5.315      13.803
  H      234.631      -5.202      11.746
  H      235.726      -4.120      12.632
  H      236.091      -5.857      12.545
  P      233.786      -6.718      13.959
  C      235.734      -8.427      14.023
  O      234.769      -7.698      14.770
  C      236.039      -9.751      14.720
  O      236.888     -10.540      13.849
  C      236.747      -9.612      16.079
  O      235.974     -10.240      17.106
  C      238.045     -10.389      15.911
  O      238.394     -11.155      17.061
  C      237.771     -11.277      14.703
  N      240.656     -15.145      13.068
  C      239.343     -15.078      13.376
  N      238.611     -13.994      13.703
  C      239.367     -12.884      13.667
  C      240.711     -12.791      13.348
  C      241.371     -13.996      13.055
  N      242.721     -14.071      12.795
  N      241.144     -11.479      13.430
  C      240.090     -10.801      13.833
  N      238.998     -11.610      14.008
  O      233.805      -7.314      12.473
  O      232.398      -6.628      14.500
  H      238.622     -10.518      17.764
  H      232.913      -7.629      12.235
  H      238.808     -16.024      13.366
  H      240.071      -9.742      14.056
  H      237.271     -12.212      14.983
  H      238.858      -9.681      15.708
  H      236.945      -8.569      16.348
  H      235.098     -10.301      14.838
  H      236.659      -7.843      13.951
  H      243.131     -14.986      12.711
  H      243.278     -13.234      12.892
  H      235.350      -8.597      13.013
  P      235.004      -9.283      17.964
  C      232.820      -9.125      16.556
  O      233.495      -9.730      17.651
  O      235.135      -7.876      17.213
  O      235.370      -9.187      19.406
  H      234.956      -7.147      17.836
  H      231.831      -9.527      16.480
  H      233.356      -9.325      15.652
  H      232.764      -8.068      16.711

 6  7  8  9  10  11  12  13  14  15  25  28  32  33  34  35 0
 6-311+G(2d,p)
 ****
 36  39  40 0
 6-311+G(2d,p)
 ****
 1  2  3  4  5  16  17  18  19  20  21  22  23  24 0
 3-21G
 ****
 26  27  29  30  31  37  38  41  42  43  44  45  46  47  48 0
 3-21G
 ****


