%nproc=1
%NoSave
%Mem=1900MB
#P OB98/GEN NMR

erre ene a

0 1
  C     -286.977    -895.250     811.679
  O     -286.357    -894.400     810.724
  P     -284.944    -894.680     810.039
  C     -285.867    -894.190     807.631
  O     -285.193    -895.080     808.511
  C     -285.796    -894.630     806.155
  O     -284.517    -894.230     805.597
  C     -285.886    -896.140     806.025
  O     -287.144    -896.780     806.041
  C     -285.020    -896.470     804.823
  O     -285.779    -896.580     803.617
  C     -284.051    -895.290     804.751
  N     -279.988    -898.260     803.791
  C     -281.244    -898.290     803.215
  N     -281.475    -899.250     802.305
  N     -282.199    -897.440     803.520
  C     -281.870    -896.590     804.513
  C     -280.667    -896.470     805.178
  C     -279.593    -897.370     804.794
  O     -278.465    -897.380     805.269
  N     -280.706    -895.500     806.151
  C     -281.945    -895.040     806.080
  N     -282.691    -895.660     805.092
  O     -284.005    -895.540     810.820
  O     -284.284    -893.200     809.932
  H     -286.441    -897.280     803.742
  H     -283.309    -893.330     810.035
  H     -279.276    -898.910     803.497
  H     -282.343    -894.240     806.704
  H     -284.004    -894.890     803.733
  H     -284.523    -897.450     804.961
  H     -280.829    -900.000     802.111
  H     -285.346    -896.560     806.899
  H     -282.445    -899.420     802.035
  H     -286.561    -894.100     805.567
  H     -285.414    -893.200     807.770
  H     -286.922    -894.090     807.942
  P     -287.969    -897.230     807.348
  C     -289.920    -895.580     807.202
  O     -288.745    -895.940     807.895
  O     -286.836    -897.480     808.452
  O     -288.819    -898.460     807.172
  H     -287.214    -898.000     809.202
  H     -290.169    -894.540     807.465
  H     -290.737    -896.230     807.496
  H     -289.767    -895.640     806.118
  H     -287.915    -894.829     811.975
  H     -286.343    -895.347     812.535
  H     -287.140    -896.214     811.245

 3  4  5  6  7  8  9  10  11  12  23  26  30  31 0
 6-311+G(2d,p)
 ****
 33  35  36  37  38 0
 6-311+G(2d,p)
 ****
 1  2  13  14  15  16  17  18  19  20  21  22  24  25 0
 3-21G
 ****
 27  28  29  32  34  39  40  41  42  43  44  45  46  47  48  49 0
 3-21G
 ****


