%nproc=1
%NoSave
%Mem=1900MB
#P OB98/GEN NMR

erre ene a

0 1
  C      619.384     435.669    -695.328
  O      620.014     435.931    -694.091
  P      620.901     434.803    -693.381
  C      620.683     434.565    -690.826
  O      621.262     435.304    -691.897
  C      621.275     435.018    -689.490
  O      622.695     434.747    -689.438
  C      621.147     436.505    -689.227
  O      619.817     436.877    -688.905
  C      622.154     436.686    -688.101
  O      621.584     436.296    -686.836
  C      623.265     435.703    -688.515
  N      624.417     436.380    -689.093
  C      625.344     436.907    -688.184
  O      625.129     436.859    -686.975
  N      626.488     437.484    -688.679
  C      626.640     437.635    -689.954
  N      627.821     438.155    -690.393
  C      625.607     437.241    -690.941
  C      624.544     436.598    -690.450
  O      622.064     434.311    -694.177
  O      619.861     433.609    -693.103
  H      620.239     432.774    -693.434
  H      622.291     436.431    -686.159
  H      625.749     437.444    -692.001
  H      623.750     436.254    -691.097
  H      623.601     435.113    -687.652
  H      622.484     437.728    -687.999
  H      621.482     437.063    -690.107
  H      620.786     434.437    -688.694
  H      628.505     438.405    -689.691
  H      620.894     433.503    -690.981
  H      628.160     438.019    -691.338
  H      619.598     434.706    -690.836
  P      618.944     437.543    -690.080
  C      618.455     439.438    -688.374
  O      617.945     438.590    -689.402
  O      617.982     436.351    -690.553
  O      619.746     438.078    -691.221
  H      617.845     436.395    -691.516
  H      617.781     440.292    -688.279
  H      619.457     439.794    -688.622
  H      618.476     438.891    -687.436
  H      618.841     436.536    -695.642
  H      618.710     434.846    -695.217
  H      620.125     435.427    -696.061

 3  4  5  6  7  8  9  10  11  12  13  24  27  28  29  30  32 0
 6-311+G(2d,p)
 ****
 34  35 0
 6-311+G(2d,p)
 ****
 1  2  14  15  16  17  18  19  20  21  22  23  25  26 0
 3-21G
 ****
 31  33  36  37  38  39  40  41  42  43  44  45  46 0
 3-21G
 ****


