%nproc=1
%NoSave
%Mem=1900MB
#P OB98/GEN NMR

erre ene a

0 1
  C     -265.975     164.194     -53.413
  O     -264.768     164.928     -53.440
  H     -265.866     163.317     -54.059
  H     -266.796     164.806     -53.795
  H     -266.203     163.854     -52.398
  P     -264.592     166.166     -52.436
  C     -262.788     166.906     -50.739
  O     -263.097     166.096     -51.866
  C     -261.436     166.498     -50.135
  O     -261.596     165.207     -49.461
  C     -260.299     166.334     -51.171
  O     -259.071     166.666     -50.500
  C     -260.389     164.846     -51.464
  O     -259.285     164.370     -52.186
  C     -260.597     164.324     -50.037
  N     -261.033     162.933     -49.934
  C     -260.136     162.022     -49.380
  O     -259.010     162.298     -48.966
  N     -260.582     160.721     -49.313
  C     -261.806     160.266     -49.718
  O     -262.159     159.094     -49.602
  C     -262.701     161.277     -50.299
  C     -262.279     162.541     -50.375
  O     -265.656     166.318     -51.397
  O     -264.539     167.439     -53.412
  H     -265.402     167.892     -53.404
  H     -258.464     164.543     -51.673
  H     -259.951     160.046     -48.910
  H     -263.675     160.948     -50.645
  H     -262.926     163.314     -50.791
  H     -259.679     164.457     -49.454
  H     -261.269     164.643     -52.085
  H     -260.422     166.980     -52.049
  H     -261.160     167.230     -49.359
  H     -263.579     166.766     -49.993
  H     -262.760     167.951     -51.044
  P     -258.488     168.158     -50.403
  C     -256.491     169.256     -49.171
  O     -257.007     168.078     -49.791
  O     -259.386     169.117     -49.678
  O     -258.252     168.624     -51.919
  H     -258.309     169.595     -51.974
  H     -255.502     169.065     -48.809
  H     -257.123     169.535     -48.353
  H     -256.461     170.052     -49.886

 6  7  8  9  10  11  12  13  14  15  16  27  31  32  33  34  35 0
 6-311+G(2d,p)
 ****
 36  37 0
 6-311+G(2d,p)
 ****
 1  2  3  4  5  17  18  19  20  21  22  23  24  25 0
 3-21G
 ****
 26  28  29  30  38  39  40  41  42  43  44  45 0
 3-21G
 ****


