%nproc=1
%NoSave
%Mem=1900MB
#P OB98/GEN NMR

erre ene a

0 1
  C     -216.366     -16.712    -208.825
  O     -216.499     -18.110    -208.667
  H     -217.128     -16.216    -208.210
  H     -216.526     -16.430    -209.867
  H     -215.379     -16.375    -208.497
  P     -215.416     -19.073    -209.356
  C     -214.023     -19.033    -207.187
  O     -214.028     -18.831    -208.593
  C     -212.997     -20.105    -206.820
  O     -211.661     -19.651    -207.134
  C     -212.977     -20.458    -205.336
  O     -214.085     -21.270    -204.993
  C     -211.616     -21.135    -205.225
  O     -211.674     -22.488    -205.699
  C     -210.760     -20.263    -206.179
  N     -209.979     -19.240    -205.464
  C     -208.653     -19.567    -205.201
  O     -208.135     -20.637    -205.529
  N     -207.938     -18.629    -204.500
  C     -208.442     -17.469    -203.973
  O     -207.833     -16.771    -203.166
  C     -209.831     -17.148    -204.347
  C     -210.531     -18.049    -205.051
  O     -215.342     -19.005    -210.847
  O     -215.842     -20.537    -208.858
  H     -216.334     -20.989    -209.571
  H     -211.901     -22.438    -206.649
  H     -206.987     -18.871    -204.261
  H     -210.248     -16.209    -204.004
  H     -211.567     -17.842    -205.317
  H     -210.065     -20.888    -206.749
  H     -211.253     -21.172    -204.197
  H     -212.968     -19.541    -204.732
  H     -213.201     -21.000    -207.424
  H     -215.024     -19.368    -206.884
  H     -213.791     -18.085    -206.684
  P     -214.638     -21.334    -203.493
  C     -216.533     -19.631    -203.799
  O     -215.299     -19.913    -203.149
  O     -213.659     -21.827    -202.479
  O     -215.907     -22.313    -203.583
  H     -215.812     -23.023    -202.916
  H     -216.881     -18.665    -203.499
  H     -217.256     -20.371    -203.527
  H     -216.389     -19.645    -204.859

 6  7  8  9  10  11  12  13  14  15  16  27  31  32  33  34  35 0
 6-311+G(2d,p)
 ****
 36  37 0
 6-311+G(2d,p)
 ****
 1  2  3  4  5  17  18  19  20  21  22  23  24  25 0
 3-21G
 ****
 26  28  29  30  38  39  40  41  42  43  44  45 0
 3-21G
 ****


