%nproc=1
%NoSave
%Mem=1900MB
#P OB98/GEN NMR

erre ene a

0 1
  C      -44.847     -26.264     -18.160
  O      -46.210     -26.575     -17.942
  H      -44.558     -26.638     -19.145
  H      -44.219     -26.744     -17.405
  H      -44.695     -25.182     -18.139
  P      -46.871     -26.168     -16.542
  C      -46.153     -28.315     -15.301
  O      -46.007     -26.905     -15.410
  C      -46.694     -28.687     -13.923
  O      -47.039     -30.084     -13.878
  C      -45.710     -28.450     -12.778
  O      -45.714     -27.087     -12.389
  C      -46.297     -29.362     -11.715
  O      -47.457     -28.739     -11.130
  C      -46.724     -30.585     -12.549
  N      -44.887     -34.883     -10.574
  C      -45.857     -34.028     -10.087
  N      -46.391     -34.349      -8.890
  N      -46.257     -32.951     -10.711
  C      -45.587     -32.719     -11.863
  C      -44.596     -33.481     -12.439
  C      -44.210     -34.706     -11.771
  O      -43.372     -35.504     -12.182
  N      -44.087     -32.879     -13.561
  C      -44.805     -31.781     -13.692
  N      -45.725     -31.631     -12.680
  O      -48.347     -26.392     -16.422
  O      -46.479     -24.628     -16.355
  H      -47.841     -29.380     -10.503
  H      -47.172     -24.042     -16.712
  H      -44.614     -35.694     -10.046
  H      -44.706     -31.064     -14.497
  H      -47.628     -31.058     -12.152
  H      -45.599     -29.572     -10.903
  H      -46.021     -35.075      -8.296
  H      -44.705     -28.802     -13.033
  H      -47.060     -33.702      -8.490
  H      -47.621     -28.122     -13.764
  H      -45.167     -28.762     -15.457
  H      -46.832     -28.690     -16.074
  P      -44.361     -26.329     -11.969
  C      -44.831     -26.677      -9.450
  O      -43.962     -26.934     -10.539
  O      -44.436     -24.843     -12.018
  O      -43.244     -26.960     -12.919
  H      -43.193     -26.516     -13.802
  H      -44.442     -27.138      -8.566
  H      -45.800     -27.078      -9.664
  H      -44.908     -25.621      -9.297

 6  7  8  9  10  11  12  13  14  15  26  29  33  34 0
 6-311+G(2d,p)
 ****
 36  38  39  40  41 0
 6-311+G(2d,p)
 ****
 1  2  3  4  5  16  17  18  19  20  21  22  23  24  25 0
 3-21G
 ****
 27  28  30  31  32  35  37  42  43  44  45  46  47 0
 3-21G
 ****
 48  49 0
 3-21G
 ****


