%nproc=1
%NoSave
%Mem=1900MB
#P OB98/GEN NMR

erre ene a

0 1
  C       58.304     320.602       0.961
  O       59.225     320.129       1.921
  H       57.481     321.101       1.482
  H       57.891     319.773       0.377
  H       58.784     321.326       0.296
  P       60.471     319.253       1.412
  C       60.015     317.191       2.916
  O       60.838     318.324       2.672
  C       60.408     316.524       4.234
  O       61.630     315.768       4.087
  C       60.688     317.488       5.381
  O       59.514     318.068       5.930
  C       61.384     316.552       6.351
  O       60.407     315.707       6.991
  C       62.279     315.733       5.389
  N       63.642     316.254       5.295
  C       64.383     316.290       6.485
  O       63.888     315.905       7.544
  N       65.656     316.809       6.453
  C       66.142     317.263       5.341
  N       67.392     317.806       5.376
  C       65.405     317.222       4.065
  C       64.174     316.715       4.112
  O       61.617     320.012       0.820
  O       59.824     318.189       0.406
  H       59.918     316.268       7.621
  H       60.559     317.628       0.054
  H       65.854     317.621       3.165
  H       63.561     316.672       3.218
  H       62.323     314.682       5.699
  H       61.928     317.071       7.145
  H       61.396     318.266       5.074
  H       59.614     315.810       4.492
  H       67.849     317.851       6.276
  H       60.132     316.498       2.076
  H       67.723     318.419       4.635
  H       58.966     317.494       2.985
  P       59.356     319.667       5.849
  C       59.166     319.704       8.450
  O       58.627     320.121       7.207
  O       58.227     319.855       4.730
  O       60.606     320.429       5.537
  H       58.624     319.993       3.847
  H       58.565     320.090       9.247
  H       60.166     320.072       8.547
  H       59.174     318.635       8.495

 6  7  8  9  10  11  12  13  14  15  16  26  30  31  32  33  35 0
 6-311+G(2d,p)
 ****
 37  38 0
 6-311+G(2d,p)
 ****
 1  2  3  4  5  17  18  19  20  21  22  23  24  25 0
 3-21G
 ****
 27  28  29  34  36  39  40  41  42  43  44  45  46 0
 3-21G
 ****


