%nproc=1
%NoSave
%Mem=1900MB
#P OB98/GEN NMR

erre ene a

0 1
  C      523.861     957.678    -760.281
  O      524.684     957.293    -759.199
  H      523.404     958.642    -760.039
  H      523.073     956.941    -760.433
  H      524.453     957.784    -761.191
  P      525.589     955.981    -759.393
  C      527.341     956.183    -757.487
  O      527.065     956.351    -758.874
  C      528.651     956.879    -757.121
  O      529.755     956.157    -757.715
  C      528.724     958.326    -757.599
  O      529.394     959.118    -756.596
  C      529.599     958.263    -758.837
  O      530.262     959.495    -759.125
  C      530.535     957.093    -758.493
  N      531.087     956.470    -759.691
  C      532.203     957.102    -760.265
  O      532.651     958.134    -759.772
  N      532.724     956.585    -761.419
  C      532.133     955.588    -762.014
  N      532.687     955.146    -763.176
  C      530.925     954.932    -761.471
  C      530.460     955.425    -760.324
  O      525.782     955.892    -760.981
  O      525.029     954.723    -758.807
  H      529.573     960.159    -759.383
  H      525.848     954.958    -761.277
  H      530.463     954.124    -762.010
  H      529.569     955.011    -759.857
  H      531.363     957.442    -757.857
  H      528.975     958.000    -759.710
  H      527.748     958.773    -757.802
  H      528.778     956.824    -756.030
  H      533.511     955.625    -763.512
  H      527.442     955.113    -757.273
  H      532.293     954.402    -763.732
  H      526.504     956.584    -756.893
  P      528.651     960.442    -756.113
  C      528.323     959.640    -753.651
  O      527.699     960.057    -754.856
  O      527.600     960.746    -757.283
  O      529.558     961.599    -755.883
  H      527.894     961.522    -757.803
  H      527.574     959.422    -752.919
  H      528.958     960.421    -753.290
  H      528.907     958.763    -753.837

 6  7  8  9  10  11  12  13  14  15  16  26  30  31  32  33  35 0
 6-311+G(2d,p)
 ****
 37  38 0
 6-311+G(2d,p)
 ****
 1  2  3  4  5  17  18  19  20  21  22  23  24  25 0
 3-21G
 ****
 27  28  29  34  36  39  40  41  42  43  44  45  46 0
 3-21G
 ****


