%nproc=1
%NoSave
%Mem=1900MB
#P OB98/GEN NMR

erre ene a

0 1
  C       74.062     -55.025    -289.747
  O       74.793     -56.000    -289.028
  P       74.047     -57.394    -288.729
  C       74.944     -59.686    -287.855
  O       75.200     -58.498    -288.585
  C       76.269     -60.354    -287.477
  O       76.881     -60.947    -288.641
  C       77.305     -59.400    -286.890
  O       77.051     -59.178    -285.512
  C       78.600     -60.152    -287.165
  O       78.824     -61.172    -286.174
  C       78.321     -60.775    -288.542
  N       81.084     -60.863    -292.776
  C       80.948     -61.818    -291.786
  N       81.610     -62.980    -291.971
  N       80.226     -61.648    -290.707
  C       79.632     -60.434    -290.648
  C       79.704     -59.402    -291.557
  C       80.463     -59.623    -292.767
  O       80.537     -58.851    -293.719
  N       78.985     -58.312    -291.138
  C       78.456     -58.696    -289.994
  N       78.799     -59.982    -289.661
  O       73.347     -57.736    -290.122
  O       73.079     -57.362    -287.589
  H       79.051     -60.751    -285.324
  H       72.408     -57.479    -290.111
  H       81.640     -61.059    -293.592
  H       77.803     -58.092    -289.385
  H       78.773     -61.768    -288.644
  H       79.472     -59.495    -287.136
  H       82.203     -63.172    -292.765
  H       77.303     -58.452    -287.442
  H       81.526     -63.688    -291.255
  H       76.049     -61.159    -286.769
  H       74.364     -60.371    -288.476
  H       74.366     -59.440    -286.958
  P       77.651     -57.843    -284.859
  C       77.701     -56.850    -282.458
  O       77.099     -57.761    -283.358
  O       76.867     -56.673    -285.621
  O       79.127     -57.692    -285.005
  H       77.463     -55.912    -285.752
  H       76.952     -56.528    -281.731
  H       78.096     -55.970    -282.978
  H       78.517     -57.351    -281.934
  H       74.666     -54.152    -289.879
  H       73.178     -54.768    -289.202
  H       73.789     -55.418    -290.704

 3  4  5  6  7  8  9  10  11  12  23  26  30  31 0
 6-311+G(2d,p)
 ****
 33  35  36  37  38 0
 6-311+G(2d,p)
 ****
 1  2  13  14  15  16  17  18  19  20  21  22  24  25 0
 3-21G
 ****
 27  28  29  32  34  39  40  41  42  43  44  45  46  47  48  49 0
 3-21G
 ****


