%nproc=1
%NoSave
%Mem=1900MB
#P OB98/GEN NMR

erre ene a

0 1
  C     -203.590     272.817    -737.859
  O     -203.789     272.459    -736.491
  P     -204.771     273.366    -735.607
  C     -206.658     271.578    -735.089
  O     -205.633     272.440    -734.633
  C     -206.665     270.303    -734.223
  O     -205.534     269.465    -734.549
  C     -206.595     270.592    -732.717
  O     -207.871     270.828    -732.165
  C     -205.916     269.336    -732.196
  O     -206.868     268.257    -732.114
  C     -204.877     269.056    -733.317
  N     -203.572     269.748    -733.226
  C     -202.912     269.828    -731.994
  O     -203.357     269.368    -730.950
  N     -201.697     270.466    -732.015
  C     -201.003     270.861    -733.112
  O     -199.889     271.373    -733.073
  C     -201.670     270.610    -734.392
  C     -202.903     270.092    -734.398
  O     -205.846     273.906    -736.666
  O     -204.095     274.487    -734.873
  H     -207.214     268.110    -733.010
  H     -205.781     274.880    -736.751
  H     -201.247     270.595    -731.123
  H     -201.135     270.867    -735.305
  H     -203.405     269.906    -735.344
  H     -204.666     267.987    -733.390
  H     -205.537     269.485    -731.188
  H     -205.923     271.438    -732.530
  H     -207.582     269.735    -734.447
  H     -206.505     271.312    -736.142
  H     -207.622     272.085    -735.023
  P     -208.007     271.303    -730.639
  C     -209.103     273.595    -731.016
  O     -209.299     272.251    -730.595
  O     -206.768     271.861    -730.016
  O     -208.516     269.982    -729.877
  H     -207.758     269.501    -729.470
  H     -210.080     274.087    -731.085
  H     -208.617     273.628    -731.993
  H     -208.499     274.132    -730.286
  H     -202.914     272.123    -738.315
  H     -203.179     273.803    -737.913
  H     -204.528     272.792    -738.374

 3  4  5  6  7  8  9  10  11  12  13  23  28  29  30  31  32 0
 6-311+G(2d,p)
 ****
 33  34 0
 6-311+G(2d,p)
 ****
 1  2  14  15  16  17  18  19  20  21  22  24  25  26  27 0
 3-21G
 ****
 35  36  37  38  39  40  41  42  43  44  45 0
 3-21G
 ****


