%nproc=1
%NoSave
%Mem=1900MB
#P OB98/GEN NMR

erre ene a

0 1
  C      -73.687     770.347    -393.163
  O      -72.462     770.648    -393.804
  H      -73.975     771.197    -392.535
  H      -73.589     769.465    -392.522
  H      -74.471     770.176    -393.905
  P      -71.752     769.493    -394.660
  C      -73.249     769.756    -396.754
  O      -72.880     768.935    -395.650
  C      -72.586     769.252    -398.030
  O      -71.158     769.437    -397.951
  C      -72.795     767.760    -398.268
  O      -74.102     767.509    -398.742
  C      -71.675     767.466    -399.242
  O      -72.023     767.863    -400.577
  C      -70.536     768.348    -398.683
  N      -69.611     767.607    -397.832
  C      -68.296     767.509    -398.299
  O      -67.968     768.040    -399.361
  N      -67.389     766.800    -397.553
  C      -67.751     766.249    -396.438
  N      -66.809     765.557    -395.749
  C      -69.127     766.337    -395.906
  C      -69.994     767.023    -396.651
  O      -71.022     768.435    -393.890
  O      -70.775     770.302    -395.639
  H      -71.970     768.838    -400.588
  H      -69.901     770.424    -395.225
  H      -69.387     765.865    -394.972
  H      -71.026     767.133    -396.330
  H      -69.963     768.804    -399.502
  H      -71.434     766.403    -399.265
  H      -72.603     767.202    -397.348
  H      -72.954     769.844    -398.871
  H      -65.880     765.516    -396.156
  H      -72.910     770.772    -396.528
  H      -66.953     765.164    -394.833
  H      -74.340     769.772    -396.878
  P      -74.735     766.040    -398.646
  C      -75.609     766.309    -396.235
  O      -74.678     765.652    -397.090
  O      -74.159     765.034    -399.581
  O      -76.303     766.304    -398.886
  H      -76.488     766.498    -399.840
  H      -75.472     765.968    -395.230
  H      -76.606     766.086    -396.555
  H      -75.448     767.366    -396.278

 6  7  8  9  10  11  12  13  14  15  16  26  30  31  32  33  35 0
 6-311+G(2d,p)
 ****
 37  38 0
 6-311+G(2d,p)
 ****
 1  2  3  4  5  17  18  19  20  21  22  23  24  25 0
 3-21G
 ****
 27  28  29  34  36  39  40  41  42  43  44  45  46 0
 3-21G
 ****


