%nproc=1
%NoSave
%Mem=1900MB
#P OB98/GEN NMR

erre ene a

0 1
  C      100.758      11.835       9.877
  O      101.828      11.838      10.800
  P      103.073      12.836      10.639
  C      104.027      11.087       9.013
  O      103.753      12.462       9.233
  C      104.801      10.874       7.711
  O      104.040      11.421       6.598
  C      106.192      11.521       7.682
  O      107.020      10.657       6.896
  C      105.933      12.822       6.948
  O      107.118      13.396       6.413
  C      104.891      12.369       5.918
  N      104.138      13.492       5.371
  C      104.864      14.445       4.653
  O      106.091      14.359       4.572
  N      104.195      15.504       4.092
  C      102.927      15.650       4.319
  N      102.316      16.714       3.733
  C      102.148      14.736       5.174
  C      102.805      13.681       5.651
  O      104.009      12.874      11.799
  O      102.387      14.247      10.326
  H      106.893      14.276       6.041
  H      102.025      14.645      11.157
  H      101.106      14.930       5.380
  H      102.319      12.955       6.287
  H      105.374      11.838       5.087
  H      105.491      13.552       7.638
  H      106.625      11.675       8.673
  H      104.887       9.794       7.544
  H      102.884      17.308       3.143
  H      103.071      10.559       8.943
  H      101.320      16.873       3.777
  H      104.576      10.673       9.865
  P      108.614      10.649       7.067
  C      109.028      11.937       4.894
  O      109.172      11.939       6.302
  O      109.282       9.364       6.701
  O      108.849      11.009       8.611
  H      109.763      10.780       8.862
  H      109.177      12.953       4.519
  H      108.033      11.591       4.602
  H      109.783      11.280       4.451
  H      100.038      11.099      10.168
  H      101.130      11.604       8.901
  H      100.296      12.800       9.864

 3  4  5  6  7  8  9  10  11  12  13  23  27  28  29  30  32 0
 6-311+G(2d,p)
 ****
 34  35 0
 6-311+G(2d,p)
 ****
 1  2  14  15  16  17  18  19  20  21  22  24  25  26 0
 3-21G
 ****
 31  33  36  37  38  39  40  41  42  43  44  45  46 0
 3-21G
 ****


