%nproc=1
%NoSave
%Mem=1900MB
#P OB98/GEN NMR

erre ene a

0 1
  C      446.566     448.110     204.106
  O      446.699     447.439     202.873
  H      447.395     447.831     204.753
  H      445.626     447.804     204.587
  H      446.571     449.198     203.958
  P      445.831     447.980     201.636
  C      444.065     446.087     201.501
  O      444.331     447.436     201.844
  C      442.575     445.903     201.175
  O      441.819     445.989     202.411
  C      442.017     446.963     200.209
  O      441.045     446.352     199.349
  C      441.267     447.911     201.151
  O      440.255     448.654     200.483
  C      440.739     446.926     202.191
  N      437.441     450.240     204.019
  C      437.496     449.609     202.789
  N      436.547     449.948     201.884
  N      438.392     448.703     202.478
  C      439.267     448.449     203.484
  C      439.336     449.015     204.732
  C      438.336     450.014     205.056
  O      438.268     450.643     206.126
  N      440.407     448.523     205.434
  C      440.996     447.689     204.614
  N      440.339     447.605     203.400
  O      446.380     447.107     200.412
  O      445.944     449.447     201.367
  H      439.700     449.105     201.158
  H      447.086     447.596     199.940
  H      436.737     450.940     204.193
  H      441.911     447.136     204.814
  H      439.867     446.359     201.826
  H      441.978     448.627     201.602
  H      435.799     450.597     202.054
  H      442.768     447.475     199.607
  H      436.541     449.453     201.003
  H      442.426     444.896     200.768
  H      444.324     445.437     202.342
  H      444.674     445.797     200.641
  P      441.422     446.166     197.803
  C      439.908     448.077     196.885
  O      441.227     447.574     197.065
  O      440.219     445.276     197.227
  O      442.749     445.503     197.578
  H      440.555     444.669     196.535
  H      439.951     449.019     196.380
  H      439.442     448.206     197.840
  H      439.339     447.385     196.301

 6  7  8  9  10  11  12  13  14  15  26  29  33  34 0
 6-311+G(2d,p)
 ****
 36  38  39  40  41 0
 6-311+G(2d,p)
 ****
 1  2  3  4  5  16  17  18  19  20  21  22  23  24  25 0
 3-21G
 ****
 27  28  30  31  32  35  37  42  43  44  45  46  47 0
 3-21G
 ****
 48  49 0
 3-21G
 ****


