%nproc=1
%NoSave
%Mem=1900MB
#P OB98/GEN NMR

erre ene a

0 1
  C      -94.135     143.583      96.900
  O      -95.110     144.426      96.310
  P      -95.695     145.623      97.208
  C      -98.164     144.817      97.121
  O      -97.013     145.049      97.925
  C      -99.447     144.895      97.952
  O     -100.573     145.080      97.060
  C      -99.716     143.653      98.803
  O     -100.295     144.085     100.038
  C     -100.763     142.899      98.007
  O     -101.539     142.039      98.838
  C     -101.544     144.056      97.364
  N     -102.268     143.636      96.169
  C     -103.647     143.878      96.148
  O     -104.203     144.350      97.140
  N     -104.363     143.533      95.029
  C     -103.775     142.902      94.061
  N     -104.527     142.585      92.973
  C     -102.350     142.517      94.097
  C     -101.661     142.930      95.159
  O      -96.280     146.635      96.118
  O      -94.696     146.272      98.109
  H     -102.280     141.679      98.297
  H      -96.204     147.559      96.425
  H     -101.918     141.958      93.278
  H     -100.605     142.714      95.258
  H     -102.261     144.482      98.076
  H     -100.277     142.287      97.235
  H      -98.812     143.071      99.003
  H      -99.387     145.786      98.589
  H     -105.504     142.847      92.978
  H      -98.099     143.815      96.687
  H     -104.155     142.092      92.170
  H      -98.187     145.543      96.302
  P      -99.612     143.575     101.396
  C     -101.571     141.986     101.877
  O     -100.183     142.094     101.618
  O     -100.436     144.404     102.496
  O      -98.142     143.766     101.568
  H     -100.070     144.228     103.383
  H     -101.847     140.927     101.871
  H     -102.145     142.506     101.108
  H     -101.799     142.401     102.863
  H      -93.836     142.836      96.195
  H      -94.549     143.111      97.766
  H      -93.284     144.166      97.184

 3  4  5  6  7  8  9  10  11  12  13  21  23  27  28  29  30  32 0
 6-311+G(2d,p)
 ****
 34  35 0
 6-311+G(2d,p)
 ****
 1  2  14  15  16  17  18  19  20  22  24  25  26 0
 3-21G
 ****
 31  33  36  37  38  39  40  41  42  43  44  45  46 0
 3-21G
 ****


