%nproc=1
%NoSave
%Mem=1900MB
#P OB98/GEN NMR

erre ene a

0 1
  C     -122.400    -911.833    -414.481
  O     -121.713    -911.166    -415.525
  H     -123.048    -911.114    -413.975
  H     -121.686    -912.233    -413.764
  H     -123.015    -912.646    -414.893
  P     -120.767    -912.059    -416.461
  C     -121.299    -913.149    -418.758
  O     -121.387    -911.989    -417.945
  C     -122.409    -913.151    -419.810
  O     -123.696    -913.355    -419.154
  C     -122.509    -911.854    -420.636
  O     -122.893    -912.191    -421.972
  C     -123.669    -911.120    -419.976
  O     -124.268    -910.149    -420.841
  C     -124.572    -912.310    -419.641
  N     -129.219    -910.425    -419.091
  C     -128.483    -910.706    -420.236
  N     -129.081    -910.432    -421.423
  N     -127.275    -911.187    -420.222
  C     -126.811    -911.457    -418.970
  C     -127.428    -911.232    -417.752
  C     -128.767    -910.647    -417.796
  O     -129.453    -910.371    -416.815
  N     -126.620    -911.594    -416.715
  C     -125.519    -912.031    -417.284
  N     -125.585    -911.966    -418.655
  O     -121.101    -913.549    -415.981
  O     -119.302    -911.763    -416.367
  H     -125.135    -909.902    -420.452
  H     -120.476    -913.836    -415.297
  H     -130.137    -910.043    -419.161
  H     -124.638    -912.414    -416.769
  H     -125.104    -912.694    -420.519
  H     -123.334    -910.619    -419.064
  H     -130.029    -910.089    -421.519
  H     -121.583    -911.259    -420.656
  H     -128.573    -910.653    -422.274
  H     -122.251    -914.013    -420.482
  H     -121.413    -914.036    -418.124
  H     -120.311    -913.181    -419.247
  P     -121.741    -912.599    -423.019
  C     -121.945    -914.009    -425.200
  O     -122.436    -912.916    -424.433
  O     -121.284    -914.048    -422.503
  O     -120.586    -911.637    -423.061
  H     -120.343    -914.215    -422.749
  H     -122.507    -914.089    -426.107
  H     -122.045    -914.913    -424.637
  H     -120.913    -913.846    -425.433

 6  7  8  9  10  11  12  13  14  15  26  29  33  34 0
 6-311+G(2d,p)
 ****
 36  38  39  40  41 0
 6-311+G(2d,p)
 ****
 1  2  3  4  5  16  17  18  19  20  21  22  23  24  25 0
 3-21G
 ****
 27  28  30  31  32  35  37  42  43  44  45  46  47 0
 3-21G
 ****
 48  49 0
 3-21G
 ****


