%nproc=1
%NoSave
%Mem=1900MB
#P OB98/GEN NMR

erre ene a

0 1
  C     -402.672      55.169    -202.120
  O     -403.028      56.020    -201.049
  H     -403.480      54.450    -202.274
  H     -401.760      54.620    -201.873
  H     -402.530      55.740    -203.041
  P     -402.080      57.263    -200.699
  C     -400.570      55.825    -199.177
  O     -400.637      56.669    -200.318
  C     -399.208      55.127    -199.098
  O     -398.167      56.140    -199.068
  C     -399.037      54.244    -197.861
  O     -398.287      53.083    -198.210
  C     -398.228      55.114    -196.915
  O     -397.470      54.343    -195.985
  C     -397.368      55.917    -197.890
  N     -394.040      58.100    -194.775
  C     -394.133      56.791    -195.206
  N     -393.215      55.924    -194.723
  N     -395.049      56.361    -196.035
  C     -395.887      57.340    -196.454
  C     -395.903      58.670    -196.105
  C     -394.897      59.122    -195.166
  O     -394.776      60.264    -194.738
  N     -396.923      59.337    -196.727
  C     -397.529      58.419    -197.452
  N     -396.943      57.184    -197.312
  O     -402.643      58.220    -199.696
  O     -401.823      57.972    -202.108
  H     -397.051      54.977    -195.364
  H     -402.338      58.796    -202.184
  H     -393.324      58.374    -194.124
  H     -398.386      58.584    -198.088
  H     -396.456      55.384    -198.185
  H     -398.900      55.771    -196.348
  H     -392.464      56.193    -194.097
  H     -399.995      53.949    -197.429
  H     -393.238      54.969    -195.046
  H     -399.061      54.551    -200.018
  H     -401.361      55.077    -199.255
  H     -400.738      56.424    -198.276
  P     -399.070      51.751    -198.646
  C     -399.902      51.022    -196.325
  O     -400.275      51.499    -197.610
  O     -398.212      50.562    -198.914
  O     -399.845      52.212    -199.974
  H     -399.888      51.457    -200.594
  H     -400.778      50.892    -195.725
  H     -399.251      51.730    -195.857
  H     -399.396      50.085    -196.426

 6  7  8  9  10  11  12  13  14  15  26  29  33  34 0
 6-311+G(2d,p)
 ****
 36  38  39  40  41 0
 6-311+G(2d,p)
 ****
 1  2  3  4  5  16  17  18  19  20  21  22  23  24  25 0
 3-21G
 ****
 27  28  30  31  32  35  37  42  43  44  45  46  47 0
 3-21G
 ****
 48  49 0
 3-21G
 ****


