%nproc=1
%NoSave
%Mem=1900MB
#P OB98/GEN NMR

erre ene a

0 1
  C     -328.040    -203.817    -304.949
  O     -328.424    -204.982    -304.249
  P     -328.619    -205.034    -302.662
  C     -327.315    -207.247    -302.275
  O     -327.383    -205.845    -302.027
  C     -326.437    -208.002    -301.250
  O     -325.111    -207.414    -301.230
  C     -327.011    -207.824    -299.832
  O     -328.047    -208.658    -299.387
  C     -325.786    -207.766    -298.928
  O     -325.502    -209.017    -298.299
  C     -324.646    -207.370    -299.874
  N     -322.118    -204.442    -296.609
  C     -322.236    -205.818    -296.627
  N     -321.770    -206.477    -295.535
  N     -322.771    -206.484    -297.614
  C     -323.272    -205.677    -298.596
  C     -323.203    -204.307    -298.686
  C     -322.568    -203.588    -297.609
  O     -322.519    -202.369    -297.507
  N     -323.877    -203.831    -299.784
  C     -324.395    -204.919    -300.330
  N     -324.086    -206.056    -299.625
  O     -329.995    -205.312    -302.156
  O     -328.264    -203.504    -302.252
  H     -324.564    -209.017    -298.022
  H     -328.823    -203.269    -301.492
  H     -321.762    -203.984    -295.772
  H     -325.027    -204.922    -301.219
  H     -323.821    -208.098    -299.808
  H     -325.948    -207.039    -298.118
  H     -321.492    -205.984    -294.698
  H     -327.443    -206.810    -299.804
  H     -321.993    -207.451    -295.446
  H     -326.291    -209.044    -301.548
  H     -326.930    -207.385    -303.288
  H     -328.330    -207.675    -302.254
  P     -328.890    -208.479    -298.035
  C     -328.320    -210.749    -296.971
  O     -328.163    -209.343    -296.881
  O     -330.240    -209.316    -298.291
  O     -329.196    -207.071    -297.661
  H     -330.941    -208.979    -297.693
  H     -328.063    -211.189    -295.996
  H     -327.647    -211.143    -297.732
  H     -329.353    -211.023    -297.211
  H     -327.977    -204.034    -305.995
  H     -327.086    -203.487    -304.595
  H     -328.766    -203.048    -304.787

 3  4  5  6  7  8  9  10  11  12  23  26  30  31 0
 6-311+G(2d,p)
 ****
 33  35  36  37  38 0
 6-311+G(2d,p)
 ****
 1  2  13  14  15  16  17  18  19  20  21  22  24  25 0
 3-21G
 ****
 27  28  29  32  34  39  40  41  42  43  44  45  46  47  48  49 0
 3-21G
 ****


