%nproc=1
%NoSave
%Mem=1900MB
#P OB98/GEN NMR

erre ene a

0 1
  C     -177.245    -270.060     938.233
  O     -176.133    -270.895     938.425
  P     -175.461    -271.693     937.199
  C     -174.008    -269.612     936.736
  O     -174.017    -271.003     937.012
  C     -172.732    -269.211     936.025
  O     -171.630    -269.335     936.950
  C     -172.343    -270.084     934.824
  O     -172.975    -269.701     933.587
  C     -170.853    -269.784     934.728
  O     -170.648    -268.511     934.084
  C     -170.448    -269.713     936.206
  N     -167.296    -271.905     939.588
  C     -167.628    -270.611     939.368
  N     -168.469    -270.107     938.443
  C     -169.000    -271.085     937.695
  C     -168.766    -272.457     937.819
  C     -167.863    -272.859     938.804
  N     -167.540    -274.176     939.040
  N     -169.508    -273.149     936.872
  C     -170.176    -272.231     936.222
  N     -169.927    -270.959     936.695
  O     -176.309    -271.767     935.977
  O     -175.108    -273.117     937.803
  H     -170.706    -268.667     933.122
  H     -174.937    -273.760     937.083
  H     -167.174    -269.884     940.026
  H     -170.860    -272.419     935.405
  H     -169.691    -268.929     936.392
  H     -170.317    -270.527     934.128
  H     -172.489    -271.149     935.028
  H     -172.812    -268.149     935.721
  H     -174.081    -269.068     937.686
  H     -166.976    -274.387     939.876
  H     -168.085    -274.891     938.584
  H     -174.897    -269.351     936.142
  P     -173.507    -270.893     932.657
  C     -176.102    -270.633     932.959
  O     -174.960    -270.424     932.151
  O     -173.464    -272.247     933.278
  O     -172.600    -270.749     931.347
  H     -172.741    -269.935     930.818
  H     -176.931    -270.105     932.515
  H     -175.952    -270.249     933.966
  H     -176.347    -271.703     932.998
  H     -177.533    -269.628     939.169
  H     -178.058    -270.634     937.840
  H     -176.992    -269.281     937.544

 3  4  5  6  7  8  9  10  11  12  22  25  29  30  31  32 0
 6-311+G(2d,p)
 ****
 33  36  37 0
 6-311+G(2d,p)
 ****
 1  2  13  14  15  16  17  18  19  20  21  23  24  26 0
 3-21G
 ****
 27  28  34  35  38  39  40  41  42  43  44  45  46  47  48 0
 3-21G
 ****


