%nproc=1
%NoSave
%Mem=1900MB
#P OB98/GEN NMR

erre ene a

0 1
  C      294.678    -388.553      48.698
  O      295.121    -389.232      49.870
  P      296.528    -388.815      50.512
  C      295.718    -386.982      52.244
  O      296.304    -388.239      51.985
  C      294.963    -387.039      53.581
  O      293.725    -387.764      53.426
  C      295.753    -387.731      54.688
  O      296.616    -386.838      55.366
  C      294.647    -388.284      55.564
  O      294.085    -387.240      56.382
  C      293.621    -388.745      54.497
  N      293.777    -390.099      53.920
  C      292.694    -390.975      53.909
  O      291.582    -390.708      54.362
  N      292.922    -392.203      53.340
  C      294.031    -392.574      52.642
  O      294.156    -393.663      52.102
  C      295.084    -391.557      52.554
  C      294.919    -390.394      53.193
  O      296.965    -387.532      49.664
  O      297.567    -389.893      50.475
  H      294.826    -386.793      56.825
  H      297.778    -387.721      49.157
  H      292.173    -392.874      53.389
  H      295.966    -391.790      51.970
  H      295.699    -389.637      53.133
  H      292.597    -388.688      54.895
  H      295.021    -389.038      56.253
  H      296.312    -388.582      54.282
  H      294.718    -386.013      53.886
  H      295.034    -386.697      51.442
  H      296.501    -386.216      52.283
  P      297.988    -387.373      55.995
  C      299.509    -385.317      55.808
  O      298.688    -386.092      56.661
  O      298.850    -388.185      55.087
  O      297.514    -388.210      57.277
  H      297.445    -389.171      57.065
  H      299.791    -384.402      56.331
  H      298.971    -385.053      54.893
  H      300.414    -385.877      55.555
  H      293.729    -388.944      48.396
  H      295.389    -388.697      47.912
  H      294.583    -387.508      48.906

 3  4  5  6  7  8  9  10  11  12  13  23  28  29  30  31  32 0
 6-311+G(2d,p)
 ****
 33  34 0
 6-311+G(2d,p)
 ****
 1  2  14  15  16  17  18  19  20  21  22  24  25  26  27 0
 3-21G
 ****
 35  36  37  38  39  40  41  42  43  44  45 0
 3-21G
 ****


