%nproc=1
%NoSave
%Mem=1900MB
#P OB98/GEN NMR

erre ene a

0 1
  C     -206.981     294.322       9.927
  O     -207.968     295.124      10.549
  H     -206.632     294.830       9.025
  H     -207.405     293.353       9.647
  H     -206.131     294.181      10.603
  P     -208.591     294.562      11.914
  C     -210.832     294.601      10.617
  O     -210.149     294.934      11.818
  C     -212.322     294.406      10.885
  O     -212.558     293.122      11.491
  C     -212.935     295.432      11.832
  O     -213.234     296.639      11.149
  C     -214.194     294.703      12.267
  O     -215.205     294.824      11.247
  C     -213.717     293.238      12.360
  N     -215.458     291.818      16.979
  C     -216.081     292.369      15.917
  N     -215.551     292.762      14.736
  C     -214.225     292.528      14.711
  C     -213.453     291.972      15.722
  C     -214.124     291.594      16.896
  N     -213.488     291.021      17.978
  N     -212.130     291.893      15.338
  C     -212.115     292.344      14.102
  N     -213.352     292.779      13.689
  O     -207.887     294.970      13.164
  O     -208.598     292.987      11.623
  H     -215.400     295.776      11.138
  H     -208.836     292.814      10.694
  H     -217.155     292.515      16.026
  H     -211.242     292.367      13.455
  H     -214.479     292.540      11.992
  H     -214.616     295.113      13.185
  H     -212.294     295.598      12.707
  H     -212.843     294.408       9.918
  H     -210.412     293.698      10.169
  H     -214.010     290.940      18.837
  H     -212.478     290.971      17.962
  H     -210.681     295.433       9.917
  P     -212.203     297.863      11.165
  C     -213.680     299.619      12.334
  O     -213.091     299.204      11.111
  O     -211.120     297.796      10.146
  O     -211.618     297.881      12.657
  H     -210.670     298.111      12.649
  H     -214.242     300.515      12.173
  H     -212.912     299.804      13.055
  H     -214.331     298.850      12.696

 6  7  8  9  10  11  12  13  14  15  25  28  32  33  34  35 0
 6-311+G(2d,p)
 ****
 36  39  40 0
 6-311+G(2d,p)
 ****
 1  2  3  4  5  16  17  18  19  20  21  22  23  24 0
 3-21G
 ****
 26  27  29  30  31  37  38  41  42  43  44  45  46  47 0
 3-21G
 ****
 48 0
 3-21G
 ****


