%nproc=1
%NoSave
%Mem=1900MB
#P OB98/GEN NMR

erre ene a

0 1
  C     -294.200      73.176      23.497
  O     -294.628      73.023      24.842
  P     -294.216      71.670      25.606
  C     -296.445      70.352      25.113
  O     -295.047      70.496      24.895
  C     -297.010      69.252      24.212
  O     -296.643      69.513      22.840
  C     -296.487      67.853      24.517
  O     -297.109      67.295      25.663
  C     -296.795      67.134      23.205
  O     -298.181      66.739      23.168
  C     -296.520      68.236      22.163
  N     -295.224      68.106      21.513
  C     -295.041      66.984      20.704
  O     -295.917      66.134      20.536
  N     -293.810      66.857      20.117
  C     -292.748      67.695      20.300
  O     -291.652      67.509      19.782
  C     -292.979      68.845      21.184
  C     -294.190      68.996      21.741
  O     -294.946      71.892      27.012
  O     -292.736      71.464      25.683
  H     -295.728      72.475      26.927
  H     -298.305      66.108      23.900
  H     -293.664      66.069      19.513
  H     -292.154      69.523      21.362
  H     -294.379      69.831      22.403
  H     -297.303      68.228      21.389
  H     -296.193      66.229      23.072
  H     -295.397      67.887      24.668
  H     -298.106      69.277      24.283
  H     -296.942      71.299      24.889
  H     -296.616      70.112      26.172
  P     -296.374      66.024      26.334
  C     -298.048      64.120      25.694
  O     -296.805      64.750      25.464
  O     -297.202      65.879      27.696
  O     -294.905      66.213      26.515
  H     -298.168      65.995      27.571
  H     -298.310      63.532      24.808
  H     -298.836      64.852      25.884
  H     -297.963      63.445      26.550
  H     -294.543      74.116      23.118
  H     -294.603      72.383      22.902
  H     -293.131      73.144      23.457

 3  4  5  6  7  8  9  10  11  12  13  24  28  29  30  31  32 0
 6-311+G(2d,p)
 ****
 33  34 0
 6-311+G(2d,p)
 ****
 1  2  14  15  16  17  18  19  20  21  22  23  25  26  27 0
 3-21G
 ****
 35  36  37  38  39  40  41  42  43  44  45 0
 3-21G
 ****


