%nproc=1
%NoSave
%Mem=1900MB
#P OB98/GEN NMR

erre ene a

0 1
  C      984.291       8.027     -56.778
  O      985.672       8.250     -56.995
  P      986.308       9.695     -56.725
  C      987.005       9.873     -59.196
  O      986.330      10.505     -58.114
  C      987.124      10.830     -60.383
  O      985.822      11.157     -60.915
  C      987.748      12.175     -60.037
  O      989.143      12.074     -59.816
  C      987.348      13.004     -61.244
  O      988.227      12.754     -62.357
  C      985.935      12.461     -61.539
  N      984.879      13.363     -61.091
  C      984.323      14.191     -62.066
  O      984.772      14.186     -63.219
  N      983.273      15.000     -61.711
  C      982.908      15.073     -60.471
  N      981.821      15.847     -60.198
  C      983.576      14.341     -59.386
  C      984.539      13.492     -59.764
  O      987.606       9.685     -55.983
  O      985.177      10.465     -55.883
  H      985.588      10.856     -55.090
  H      988.014      11.853     -62.684
  H      983.271      14.481     -58.360
  H      985.073      12.893     -59.034
  H      985.818      12.286     -62.613
  H      987.388      14.088     -61.042
  H      987.276      12.582     -59.131
  H      987.702      10.328     -61.169
  H      981.371      16.323     -60.963
  H      986.439       8.991     -59.496
  H      981.263      15.717     -59.349
  H      987.997       9.562     -58.858
  P      989.858      13.293     -59.056
  C      991.549      13.991     -60.886
  O      990.377      14.317     -60.168
  O      991.207      12.631     -58.473
  O      989.031      13.901     -57.958
  H      991.400      13.025     -57.610
  H      991.568      14.580     -61.810
  H      991.579      12.925     -61.141
  H      992.431      14.240     -60.286
  H      984.053       7.010     -57.010
  H      983.721       8.679     -57.407
  H      984.055       8.223     -55.753

 3  4  5  6  7  8  9  10  11  12  13  24  27  28  29  30  32 0
 6-311+G(2d,p)
 ****
 34  35 0
 6-311+G(2d,p)
 ****
 1  2  14  15  16  17  18  19  20  21  22  23  25  26 0
 3-21G
 ****
 31  33  36  37  38  39  40  41  42  43  44  45  46 0
 3-21G
 ****


