%nproc=1
%NoSave
%Mem=1900MB
#P OB98/GEN NMR

erre ene a

0 1
  C      312.099     579.587     394.140
  O      312.374     580.044     392.820
  P      311.961     581.539     392.415
  C      309.844     582.836     391.714
  O      310.398     581.564     392.041
  C      308.304     582.762     391.632
  O      307.901     582.248     390.329
  C      307.686     581.852     392.713
  O      306.636     582.479     393.439
  C      307.312     580.591     391.942
  O      306.276     579.852     392.580
  C      307.013     581.152     390.543
  N      307.156     580.103     389.519
  C      306.193     579.102     389.498
  O      305.292     579.020     390.330
  N      306.316     578.153     388.516
  C      307.339     578.070     387.613
  O      307.438     577.174     386.777
  C      308.372     579.112     387.708
  C      308.229     580.065     388.649
  O      312.863     582.221     391.424
  O      311.987     582.321     393.818
  H      305.419     580.289     392.381
  H      312.358     583.219     393.664
  H      305.605     577.436     388.491
  H      309.205     579.070     387.043
  H      308.981     580.846     388.760
  H      305.976     581.515     390.479
  H      308.194     579.948     391.882
  H      308.429     581.593     393.479
  H      307.915     583.784     391.729
  H      310.228     583.169     390.748
  H      310.177     583.586     392.442
  P      306.672     582.784     395.013
  C      306.622     581.377     397.191
  O      306.439     581.399     395.791
  O      305.814     583.914     395.474
  O      308.224     583.116     395.282
  H      308.280     583.857     395.914
  H      306.797     580.344     397.503
  H      305.717     581.754     397.683
  H      307.486     581.992     397.496
  H      312.435     578.576     394.245
  H      311.045     579.633     394.321
  H      312.610     580.208     394.846

 3  4  5  6  7  8  9  10  11  12  13  23  28  29  30  31  32 0
 6-311+G(2d,p)
 ****
 33  34 0
 6-311+G(2d,p)
 ****
 1  2  14  15  16  17  18  19  20  21  22  24  25  26  27 0
 3-21G
 ****
 35  36  37  38  39  40  41  42  43  44  45 0
 3-21G
 ****


