%nproc=1
%NoSave
%Mem=1900MB
#P OB98/GEN NMR

erre ene a

0 1
  C      -22.843      33.615      21.962
  O      -22.283      34.597      22.816
  P      -21.317      35.702      22.160
  C      -21.592      37.318      20.136
  O      -21.962      36.092      20.743
  C      -21.289      37.112      18.650
  O      -19.985      36.487      18.527
  C      -22.290      36.220      17.908
  O      -22.359      36.702      16.560
  C      -21.619      34.860      17.928
  O      -22.105      33.991      16.910
  C      -20.156      35.265      17.777
  N      -15.961      32.597      16.856
  C      -16.638      33.489      16.044
  N      -16.081      33.746      14.842
  N      -17.757      34.075      16.382
  C      -18.183      33.731      17.621
  C      -17.624      32.834      18.499
  C      -16.369      32.222      18.129
  O      -15.691      31.493      18.850
  N      -18.394      32.681      19.621
  C      -19.374      33.546      19.457
  N      -19.265      34.239      18.281
  O      -20.022      34.852      21.766
  O      -20.993      36.876      23.027
  H      -21.596      33.157      16.961
  H      -19.347      34.891      22.471
  H      -15.094      32.191      16.548
  H      -20.181      33.717      20.151
  H      -19.880      35.462      16.733
  H      -21.795      34.376      18.896
  H      -15.207      33.355      14.529
  H      -23.285      36.208      18.360
  H      -16.540      34.421      14.242
  H      -21.225      38.096      18.171
  H      -20.690      37.698      20.626
  H      -22.393      38.052      20.271
  P      -23.730      36.488      15.757
  C      -26.225      37.013      16.206
  O      -24.933      36.840      16.751
  O      -23.819      34.893      15.623
  O      -23.777      37.136      14.412
  H      -24.268      34.659      14.790
  H      -26.964      36.846      16.994
  H      -26.417      36.311      15.390
  H      -26.330      38.036      15.836
  H      -23.459      32.953      22.535
  H      -22.057      33.057      21.496
  H      -23.436      34.092      21.210

 3  4  5  6  7  8  9  10  11  12  23  26  30  31 0
 6-311+G(2d,p)
 ****
 33  35  36  37  38 0
 6-311+G(2d,p)
 ****
 1  2  13  14  15  16  17  18  19  20  21  22  24  25 0
 3-21G
 ****
 27  28  29  32  34  39  40  41  42  43  44  45  46  47  48  49 0
 3-21G
 ****


