%nproc=1
%NoSave
%Mem=1900MB
#P OB98/GEN NMR

erre ene a

0 1
  C        9.068    -342.070    -622.425
  O        8.364    -341.842    -623.629
  H        8.668    -341.417    -621.649
  H       10.131    -341.843    -622.557
  H        8.950    -343.113    -622.113
  P        8.887    -342.626    -624.929
  C        7.640    -344.043    -626.734
  O        7.554    -343.297    -625.526
  C        6.400    -344.914    -626.899
  O        6.333    -345.912    -625.860
  C        5.074    -344.155    -626.808
  O        4.757    -343.437    -627.990
  C        4.125    -345.318    -626.580
  O        3.928    -346.037    -627.807
  C        4.931    -346.155    -625.557
  N        4.630    -345.805    -624.167
  C        3.386    -346.197    -623.672
  O        2.581    -346.801    -624.393
  N        3.047    -345.861    -622.379
  C        3.896    -345.215    -621.640
  N        3.503    -344.909    -620.371
  C        5.228    -344.798    -622.113
  C        5.534    -345.119    -623.372
  O        9.669    -343.889    -624.311
  O        9.683    -341.830    -625.906
  H        3.286    -346.746    -627.614
  H        9.906    -344.518    -625.035
  H        5.882    -344.246    -621.458
  H        6.494    -344.850    -623.783
  H        4.748    -347.225    -625.692
  H        3.135    -345.004    -626.226
  H        5.046    -343.490    -625.940
  H        6.489    -345.443    -627.859
  H        2.562    -345.155    -620.096
  H        8.540    -344.673    -626.692
  H        4.028    -344.284    -619.767
  H        7.725    -343.366    -627.594
  P        3.543    -342.390    -627.913
  C        2.532    -340.619    -629.530
  O        3.595    -341.509    -629.256
  O        4.024    -341.361    -626.786
  O        2.207    -342.989    -627.594
  H        3.266    -341.025    -626.265
  H        2.720    -340.113    -630.454
  H        2.455    -339.902    -628.740
  H        1.617    -341.168    -629.603

 6  7  8  9  10  11  12  13  14  15  16  26  30  31  32  33  35 0
 6-311+G(2d,p)
 ****
 37  38 0
 6-311+G(2d,p)
 ****
 1  2  3  4  5  17  18  19  20  21  22  23  24  25 0
 3-21G
 ****
 27  28  29  34  36  39  40  41  42  43  44  45  46 0
 3-21G
 ****


