%nproc=1
%NoSave
%Mem=1900MB
#P OB98/GEN NMR

erre ene a

0 1
  C      164.296     286.141     818.852
  O      164.390     285.978     820.255
  H      164.523     285.183     818.377
  H      165.006     286.891     818.505
  H      163.275     286.435     818.581
  P      164.125     287.284     821.149
  C      163.433     285.516     822.909
  O      164.113     286.739     822.659
  C      164.273     284.619     823.820
  O      164.733     285.358     824.967
  C      163.522     283.399     824.367
  O      163.531     282.348     823.422
  C      164.378     283.058     825.583
  O      165.529     282.314     825.169
  C      164.810     284.450     826.096
  N      163.694     284.131     831.100
  C      164.412     283.330     830.291
  N      164.631     283.441     828.959
  C      164.003     284.526     828.469
  C      163.226     285.437     829.173
  C      163.084     285.210     830.554
  N      162.342     286.027     831.386
  N      162.743     286.420     828.346
  C      163.267     286.147     827.166
  N      164.008     284.995     827.179
  O      162.952     288.119     820.743
  O      165.546     288.017     821.059
  H      166.033     282.078     825.974
  H      166.268     287.363     821.118
  H      164.885     282.481     830.777
  H      163.154     286.762     826.276
  H      165.846     284.447     826.441
  H      163.838     282.452     826.314
  H      162.511     283.661     824.696
  H      165.166     284.300     823.253
  H      163.229     284.988     821.959
  H      162.126     285.688     832.302
  H      161.783     286.761     830.949
  H      162.478     285.754     823.388
  P      162.170     281.604     822.998
  C      163.759     280.957     821.075
  O      162.595     280.595     821.820
  O      161.032     282.514     822.699
  O      161.870     280.608     824.222
  H      160.931     280.320     824.185
  H      163.945     280.219     820.323
  H      164.600     281.016     821.734
  H      163.603     281.908     820.610

 6  7  8  9  10  11  12  13  14  15  25  28  32  33  34  35 0
 6-311+G(2d,p)
 ****
 36  39  40 0
 6-311+G(2d,p)
 ****
 1  2  3  4  5  16  17  18  19  20  21  22  23  24 0
 3-21G
 ****
 26  27  29  30  31  37  38  41  42  43  44  45  46  47 0
 3-21G
 ****
 48 0
 3-21G
 ****


