%nproc=1
%NoSave
%Mem=1900MB
#P OB98/GEN NMR

erre ene a

0 1
  C      770.048    -893.200    -261.945
  O      768.917    -892.370    -262.196
  P      768.421    -892.190    -263.714
  C      766.044    -893.220    -263.532
  O      767.368    -893.370    -264.007
  C      765.112    -894.210    -264.238
  O      765.249    -894.040    -265.670
  C      765.398    -895.690    -263.927
  O      764.137    -896.380    -263.969
  C      766.257    -896.130    -265.102
  O      766.237    -897.530    -265.294
  C      765.625    -895.330    -266.220
  N      767.907    -897.560    -270.145
  C      767.105    -898.100    -269.147
  N      766.824    -899.400    -269.271
  N      766.609    -897.420    -268.170
  C      766.973    -896.110    -268.190
  C      767.772    -895.450    -269.094
  C      768.274    -896.210    -270.203
  O      768.923    -895.740    -271.149
  N      767.965    -894.150    -268.739
  C      767.202    -893.980    -267.679
  N      766.551    -895.130    -267.338
  O      769.714    -892.640    -264.540
  O      767.939    -890.810    -264.085
  H      766.564    -897.710    -266.202
  H      770.252    -891.860    -264.794
  H      768.245    -898.120    -270.917
  H      767.089    -893.070    -267.121
  H      764.719    -895.790    -266.625
  H      767.296    -895.810    -264.934
  H      767.146    -900.000    -270.048
  H      765.879    -895.850    -262.953
  H      766.222    -899.830    -268.595
  H      764.082    -893.960    -263.971
  H      765.696    -892.200    -263.758
  H      766.022    -893.350    -262.435
  P      763.733    -897.280    -262.710
  C      762.166    -895.420    -261.808
  O      763.258    -896.290    -261.552
  O      765.140    -897.800    -262.147
  O      762.828    -898.430    -263.031
  H      765.045    -898.690    -261.772
  H      761.669    -895.140    -260.873
  H      761.402    -895.890    -262.440
  H      762.523    -894.540    -262.325
  H      770.251    -893.218    -260.895
  H      770.898    -892.812    -262.466
  H      769.844    -894.194    -262.286

 3  4  5  6  7  8  9  10  11  12  23  26  30  31 0
 6-311+G(2d,p)
 ****
 33  35  36  37  38 0
 6-311+G(2d,p)
 ****
 1  2  13  14  15  16  17  18  19  20  21  22  24  25 0
 3-21G
 ****
 27  28  29  32  34  39  40  41  42  43  44  45  46  47  48  49 0
 3-21G
 ****


