%nproc=1
%NoSave
%Mem=1900MB
#P OB98/GEN NMR

erre ene a

0 1
  C      -43.378      99.605     -97.301
  O      -42.795     100.541     -96.389
  P      -41.500     101.337     -96.903
  C      -38.931     100.964     -96.937
  O      -40.201     100.479     -96.522
  C      -37.858     100.563     -95.924
  O      -37.956     101.334     -94.708
  C      -37.955      99.107     -95.484
  O      -37.477      98.236     -96.495
  C      -37.109      99.133     -94.215
  O      -35.709      99.094     -94.542
  C      -37.463     100.508     -93.624
  N      -38.313      99.330     -88.716
  C      -37.195      99.288     -89.474
  N      -37.052      99.617     -90.776
  C      -38.219     100.035     -91.293
  C      -39.439     100.135     -90.642
  C      -39.465      99.753     -89.290
  N      -40.607      99.782     -88.523
  N      -40.413     100.601     -91.503
  C      -39.796     100.758     -92.656
  N      -38.466     100.441     -92.577
  O      -41.428     102.597     -95.919
  O      -41.585     101.758     -98.333
  H      -35.216      99.030     -93.700
  H      -41.677     103.410     -96.398
  H      -36.295      98.947     -88.970
  H      -40.267     101.096     -93.572
  H      -36.588     101.014     -93.198
  H      -37.313      98.291     -93.546
  H      -38.994      98.854     -95.238
  H      -36.874     100.748     -96.377
  H      -38.955     102.052     -97.038
  H      -40.556      99.419     -87.583
  H      -41.487     100.013     -88.961
  H      -38.708     100.562     -97.931
  P      -38.548      97.610     -97.509
  C      -39.739      95.335     -97.612
  O      -38.934      96.203     -96.834
  O      -37.616      97.165     -98.729
  O      -39.692      98.502     -97.850
  H      -36.813      96.705     -98.422
  H      -39.896      94.410     -97.052
  H      -39.237      95.100     -98.555
  H      -40.708      95.800     -97.809
  H      -44.228      99.143     -96.843
  H      -42.657      98.855     -97.552
  H      -43.685     100.116     -98.189

 3  4  5  6  7  8  9  10  11  12  22  25  29  30  31  32 0
 6-311+G(2d,p)
 ****
 33  36  37 0
 6-311+G(2d,p)
 ****
 1  2  13  14  15  16  17  18  19  20  21  23  24  26 0
 3-21G
 ****
 27  28  34  35  38  39  40  41  42  43  44  45  46  47  48 0
 3-21G
 ****


