%nproc=1
%NoSave
%Mem=1900MB
#P OB98/GEN NMR

erre ene a

0 1
  C      382.088    -126.066      16.658
  O      383.254    -126.513      15.995
  H      381.680    -126.892      17.242
  H      381.343    -125.751      15.924
  H      382.324    -125.238      17.331
  P      384.069    -125.423      15.145
  C      385.958    -125.391      16.923
  O      385.615    -125.588      15.559
  C      387.150    -124.445      17.048
  O      387.259    -124.002      18.436
  C      388.498    -125.069      16.659
  O      389.299    -124.050      16.044
  C      389.117    -125.408      18.007
  O      390.534    -125.539      17.940
  C      388.627    -124.220      18.835
  N      391.882    -124.428      22.665
  C      392.078    -124.096      21.337
  N      393.335    -123.771      20.971
  N      391.123    -124.088      20.448
  C      389.908    -124.402      20.958
  C      389.583    -124.755      22.247
  C      390.657    -124.785      23.221
  O      390.547    -125.090      24.404
  N      388.242    -125.028      22.361
  C      387.761    -124.843      21.144
  N      388.733    -124.466      20.261
  O      383.639    -124.047      15.838
  O      383.799    -125.420      13.679
  H      390.861    -125.733      18.844
  H      382.880    -123.651      15.366
  H      392.656    -124.433      23.307
  H      386.728    -124.976      20.852
  H      389.193    -123.303      18.627
  H      388.702    -126.349      18.387
  H      394.112    -123.712      21.611
  H      388.420    -125.934      15.992
  H      393.493    -123.484      20.014
  H      386.948    -123.548      16.449
  H      386.220    -126.355      17.367
  H      385.094    -124.978      17.455
  P      390.185    -124.454      14.771
  C      388.391    -125.097      13.001
  O      389.333    -124.136      13.453
  O      390.168    -126.058      14.821
  O      391.576    -123.916      14.795
  H      390.979    -126.408      14.407
  H      387.909    -124.736      12.117
  H      387.659    -125.264      13.763
  H      388.895    -126.015      12.783

 6  7  8  9  10  11  12  13  14  15  26  29  33  34 0
 6-311+G(2d,p)
 ****
 36  38  39  40  41 0
 6-311+G(2d,p)
 ****
 1  2  3  4  5  16  17  18  19  20  21  22  23  24  25 0
 3-21G
 ****
 27  28  30  31  32  35  37  42  43  44  45  46  47 0
 3-21G
 ****
 48  49 0
 3-21G
 ****


