%nproc=1
%NoSave
%Mem=1900MB
#P OB98/GEN NMR

erre ene a

0 1
  C      494.716    -397.387    -645.451
  O      493.508    -397.320    -644.715
  H      495.544    -397.142    -644.782
  H      494.695    -396.656    -646.267
  H      494.870    -398.392    -645.852
  P      492.177    -397.819    -645.475
  C      492.092    -395.723    -647.061
  O      492.219    -397.129    -646.923
  C      491.330    -395.376    -648.340
  O      492.099    -395.844    -649.482
  C      489.934    -396.005    -648.424
  O      489.055    -395.090    -649.083
  C      490.156    -397.224    -649.315
  O      488.942    -397.649    -649.939
  C      491.240    -396.702    -650.265
  N      491.997    -397.784    -650.890
  C      491.437    -398.368    -652.031
  O      490.339    -397.980    -652.459
  N      492.089    -399.417    -652.644
  C      493.189    -399.877    -652.113
  N      493.773    -400.928    -652.759
  C      493.792    -399.322    -650.902
  C      493.155    -398.283    -650.347
  O      491.040    -397.003    -644.694
  O      491.987    -399.301    -645.478
  H      489.116    -398.489    -650.414
  H      491.265    -396.068    -644.549
  H      494.699    -399.751    -650.487
  H      493.538    -397.809    -649.440
  H      490.792    -396.096    -651.065
  H      490.538    -398.057    -648.712
  H      489.527    -396.260    -647.443
  H      491.265    -394.281    -648.427
  H      493.304    -401.290    -653.575
  H      493.079    -395.252    -647.086
  H      494.598    -401.404    -652.416
  H      491.558    -395.349    -646.185
  P      487.847    -394.429    -648.269
  C      485.941    -395.695    -649.492
  O      486.595    -395.437    -648.253
  O      487.518    -393.020    -648.627
  O      488.374    -394.506    -646.744
  H      488.125    -393.669    -646.305
  H      485.133    -396.378    -649.333
  H      486.639    -396.123    -650.181
  H      485.560    -394.778    -649.892

 6  7  8  9  10  11  12  13  14  15  16  26  30  31  32  33  35 0
 6-311+G(2d,p)
 ****
 37  38 0
 6-311+G(2d,p)
 ****
 1  2  3  4  5  17  18  19  20  21  22  23  24  25 0
 3-21G
 ****
 27  28  29  34  36  39  40  41  42  43  44  45  46 0
 3-21G
 ****


