%nproc=1
%NoSave
%Mem=1900MB
#P OB98/GEN NMR

erre ene a

0 1
  C      251.020     255.011     159.185
  O      249.647     255.297     159.002
  H      251.259     254.977     160.249
  H      251.238     254.035     158.742
  H      251.633     255.768     158.689
  P      249.109     256.677     159.616
  C      247.513     255.324     161.147
  O      248.503     256.343     161.067
  C      246.362     255.788     162.037
  O      246.890     256.069     163.359
  C      245.630     257.045     161.538
  O      244.239     256.767     161.355
  C      245.773     258.044     162.677
  O      244.589     258.804     162.913
  C      246.131     257.169     163.873
  N      246.085     261.278     166.887
  C      245.080     260.577     166.319
  N      245.151     259.430     165.614
  C      246.421     258.995     165.545
  C      247.545     259.589     166.091
  C      247.344     260.797     166.776
  N      248.376     261.540     167.311
  N      248.680     258.847     165.801
  C      248.251     257.851     165.052
  N      246.897     257.910     164.854
  O      247.813     256.993     158.730
  O      250.085     257.807     159.585
  H      244.779     259.391     163.665
  H      247.836     257.922     158.431
  H      244.085     260.999     166.436
  H      248.878     257.097     164.595
  H      245.240     256.764     164.369
  H      246.586     258.737     162.437
  H      246.056     257.442     160.611
  H      245.657     254.954     162.146
  H      247.955     254.419     161.578
  H      248.152     262.450     167.683
  H      249.324     261.243     167.137
  H      247.160     255.091     160.139
  P      243.727     256.618     159.837
  C      241.611     258.134     159.762
  O      242.989     257.990     159.445
  O      242.518     255.576     159.963
  O      244.775     256.148     158.887
  H      242.404     255.091     159.124
  H      241.269     259.095     159.439
  H      241.477     258.045     160.820
  H      241.049     257.370     159.266

 6  7  8  9  10  11  12  13  14  15  25  28  32  33  34  35 0
 6-311+G(2d,p)
 ****
 36  39  40 0
 6-311+G(2d,p)
 ****
 1  2  3  4  5  16  17  18  19  20  21  22  23  24 0
 3-21G
 ****
 26  27  29  30  31  37  38  41  42  43  44  45  46  47  48 0
 3-21G
 ****


