%nproc=1
%NoSave
%Mem=1900MB
#P OB98/GEN NMR

erre ene a

0 1
  C       85.189     233.432    -260.479
  O       84.507     233.612    -261.725
  P       84.164     235.097    -262.228
  C       86.557     235.630    -263.051
  O       85.491     235.990    -262.179
  C       86.916     236.815    -263.960
  O       87.468     237.917    -263.195
  C       87.989     236.472    -264.979
  O       87.625     235.585    -266.013
  C       88.500     237.845    -265.387
  O       87.666     238.440    -266.386
  C       88.388     238.622    -264.055
  N       89.686     238.809    -263.404
  C       89.779     239.869    -262.507
  O       88.855     240.649    -262.290
  N       90.992     240.027    -261.894
  C       92.107     239.266    -262.108
  O       93.172     239.468    -261.546
  C       91.956     238.178    -263.082
  C       90.775     238.000    -263.677
  O       82.949     235.719    -261.625
  O       83.951     234.887    -263.808
  H       87.669     237.842    -267.155
  H       83.189     235.435    -264.081
  H       91.073     240.787    -261.234
  H       92.820     237.559    -263.281
  H       90.642     237.202    -264.402
  H       87.958     239.617    -264.225
  H       89.510     237.792    -265.802
  H       88.815     235.976    -264.447
  H       86.004     237.169    -264.441
  H       86.267     234.768    -263.652
  H       87.418     235.316    -262.452
  P       88.329     234.160    -266.249
  C       86.281     232.643    -265.776
  O       87.557     233.069    -265.363
  O       89.824     234.122    -266.236
  O       87.817     233.793    -267.726
  H       88.521     233.283    -268.175
  H       85.898     231.915    -265.051
  H       86.330     232.166    -266.756
  H       85.587     233.489    -265.811
  H       85.336     232.387    -260.300
  H       84.603     233.850    -259.688
  H       86.138     233.924    -260.518

 3  4  5  6  7  8  9  10  11  12  13  23  28  29  30  31  32 0
 6-311+G(2d,p)
 ****
 33  34 0
 6-311+G(2d,p)
 ****
 1  2  14  15  16  17  18  19  20  21  22  24  25  26  27 0
 3-21G
 ****
 35  36  37  38  39  40  41  42  43  44  45 0
 3-21G
 ****


