%nproc=1
%NoSave
%Mem=1900MB
#P OB98/GEN NMR

erre ene a

0 1
  C     2187.814    1139.945    -893.327
  O     2188.344    1138.719    -892.867
  H     2188.477    1140.747    -893.017
  H     2186.819    1140.112    -892.887
  H     2187.730    1139.939    -894.417
  P     2187.649    1137.376    -893.387
  C     2189.649    1136.110    -894.507
  O     2188.480    1136.910    -894.687
  C     2190.896    1136.916    -894.877
  O     2190.968    1138.083    -894.027
  C     2192.213    1136.131    -894.707
  O     2193.110    1136.525    -895.737
  C     2192.717    1136.633    -893.377
  O     2194.138    1136.483    -893.227
  C     2192.281    1138.113    -893.437
  N     2192.269    1138.718    -892.097
  C     2193.439    1139.318    -891.667
  O     2194.456    1139.421    -892.317
  N     2193.394    1139.794    -890.387
  C     2192.343    1139.700    -889.517
  O     2192.405    1140.140    -888.367
  C     2191.146    1139.068    -890.037
  C     2191.158    1138.603    -891.287
  O     2186.264    1137.895    -893.987
  O     2187.470    1136.289    -892.377
  H     2185.573    1137.896    -893.317
  H     2194.360    1135.533    -893.267
  H     2194.261    1140.229    -890.047
  H     2190.290    1138.988    -889.357
  H     2190.271    1138.110    -891.667
  H     2192.953    1138.665    -894.087
  H     2192.234    1136.106    -892.547
  H     2192.092    1135.008    -894.707
  H     2190.796    1137.262    -895.917
  H     2189.564    1135.217    -895.157
  H     2189.703    1135.783    -893.467
  P     2193.434    1135.416    -896.887
  C     2193.114    1136.441    -899.267
  O     2192.512    1135.834    -898.137
  O     2192.707    1134.103    -896.277
  O     2194.896    1135.264    -897.157
  H     2191.903    1134.320    -895.797
  H     2192.364    1136.653    -900.000
  H     2193.842    1135.777    -899.683
  H     2193.591    1137.352    -898.971

 6  7  8  9  10  11  12  13  14  15  16  27  31  32  33  34  35 0
 6-311+G(2d,p)
 ****
 36  37 0
 6-311+G(2d,p)
 ****
 1  2  3  4  5  17  18  19  20  21  22  23  24  25 0
 3-21G
 ****
 26  28  29  30  38  39  40  41  42  43  44  45 0
 3-21G
 ****


