%nproc=1
%NoSave
%Mem=1900MB
#P OB98/GEN NMR

erre ene a

0 1
  C       82.920     617.478     468.552
  O       83.762     617.227     469.666
  H       82.838     618.564     468.416
  H       81.921     617.075     468.726
  H       83.347     617.045     467.645
  P       84.033     615.703     470.076
  C       86.577     616.107     470.298
  O       85.543     615.390     469.631
  C       87.795     616.240     469.389
  O       87.413     616.813     468.122
  C       88.897     617.133     469.955
  O       89.684     616.409     470.892
  C       89.648     617.486     468.684
  O       90.462     616.368     468.276
  C       88.493     617.689     467.688
  N       85.853     621.028     464.928
  C       86.216     619.721     464.634
  N       85.861     619.264     463.417
  N       86.891     618.959     465.454
  C       87.227     619.576     466.608
  C       86.940     620.860     467.004
  C       86.154     621.686     466.113
  O       85.792     622.839     466.339
  N       87.516     621.160     468.219
  C       88.121     620.040     468.571
  N       87.986     619.053     467.620
  O       83.038     614.694     469.581
  O       84.118     615.740     471.672
  H       91.113     616.221     468.985
  H       83.248     615.559     472.078
  H       85.353     621.575     464.245
  H       88.656     619.890     469.496
  H       88.768     617.395     466.665
  H       90.315     618.344     468.799
  H       85.612     619.888     462.660
  H       88.493     618.052     470.388
  H       86.168     618.331     463.167
  H       88.174     615.233     469.184
  H       86.833     615.547     471.204
  H       86.221     617.102     470.590
  P       89.182     616.198     472.412
  C       89.461     613.658     472.002
  O       88.599     614.705     472.443
  O       88.241     617.241     472.910
  O       90.527     616.069     473.259
  H       90.878     616.937     473.583
  H       88.950     612.721     472.074
  H       90.337     613.635     472.616
  H       89.743     613.833     470.985

 6  7  8  9  10  11  12  13  14  15  26  29  33  34 0
 6-311+G(2d,p)
 ****
 36  38  39  40  41 0
 6-311+G(2d,p)
 ****
 1  2  3  4  5  16  17  18  19  20  21  22  23  24  25 0
 3-21G
 ****
 27  28  30  31  32  35  37  42  43  44  45  46  47 0
 3-21G
 ****
 48  49 0
 3-21G
 ****


