%nproc=1
%NoSave
%Mem=1900MB
#P OB98/GEN NMR

erre ene a

0 1
  C       26.665      -3.183     -18.453
  O       27.916      -2.820     -19.001
  H       26.280      -2.376     -17.824
  H       25.959      -3.358     -19.270
  H       26.761      -4.100     -17.865
  P       29.090      -2.483     -17.960
  C       28.723       0.093     -17.977
  O       28.635      -1.120     -17.243
  C       27.861       1.154     -17.302
  O       26.460       0.849     -17.491
  C       28.065       1.245     -15.794
  O       29.198       2.022     -15.444
  C       26.776       1.929     -15.375
  O       26.848       3.332     -15.680
  C       25.748       1.236     -16.284
  N       22.107      -0.475     -13.118
  C       22.413       0.766     -13.555
  N       23.384       1.136     -14.414
  C       24.073       0.067     -14.841
  C       23.874      -1.259     -14.490
  C       22.837      -1.518     -13.578
  N       22.543      -2.778     -13.107
  N       24.797      -2.072     -15.118
  C       25.526      -1.252     -15.848
  N       25.148       0.054     -15.688
  O       30.302      -2.011     -18.892
  O       29.466      -3.579     -17.021
  H       27.649       3.678     -15.244
  H       31.135      -1.994     -18.384
  H       21.797       1.568     -13.158
  H       26.340      -1.551     -16.495
  H       24.930       1.903     -16.578
  H       26.581       1.842     -14.302
  H       28.108       0.251     -15.334
  H       28.059       2.119     -17.785
  H       28.364      -0.080     -18.997
  H       21.884      -2.843     -12.347
  H       23.170      -3.537     -13.327
  H       29.766       0.422     -18.013
  P       30.150       1.459     -14.279
  C       28.844       2.665     -12.385
  O       29.261       1.425     -12.944
  O       31.156       2.676     -14.022
  O       30.866       0.194     -14.619
  H       32.035       2.349     -13.752
  H       28.264       2.482     -11.505
  H       28.251       3.197     -13.099
  H       29.704       3.249     -12.130

 6  7  8  9  10  11  12  13  14  15  25  28  32  33  34  35 0
 6-311+G(2d,p)
 ****
 36  39  40 0
 6-311+G(2d,p)
 ****
 1  2  3  4  5  16  17  18  19  20  21  22  23  24 0
 3-21G
 ****
 26  27  29  30  31  37  38  41  42  43  44  45  46  47 0
 3-21G
 ****
 48 0
 3-21G
 ****


