%nproc=1
%NoSave
%Mem=1900MB
#P OB98/GEN NMR

erre ene a

0 1
  C     -237.602     217.604     151.888
  O     -238.117     218.577     152.779
  P     -239.003     219.759     152.151
  C     -241.230     219.696     153.499
  O     -240.540     219.327     152.311
  C     -242.676     219.208     153.440
  O     -242.711     217.768     153.364
  C     -243.520     219.574     154.655
  O     -243.901     220.938     154.623
  C     -244.672     218.586     154.500
  O     -245.598     219.060     153.509
  C     -243.950     217.329     153.984
  N     -245.096     212.763     156.004
  C     -245.615     213.444     154.960
  N     -245.273     214.664     154.497
  C     -244.273     215.185     155.228
  C     -243.659     214.622     156.332
  C     -244.102     213.348     156.719
  N     -243.573     212.659     157.792
  N     -242.690     215.463     156.839
  C     -242.710     216.512     156.047
  N     -243.642     216.387     155.050
  O     -238.741     219.613     150.581
  O     -238.671     221.130     152.648
  H     -245.094     219.194     152.682
  H     -238.746     220.485     150.142
  H     -246.416     212.940     154.422
  H     -242.075     217.381     156.146
  H     -244.529     216.791     153.225
  H     -245.233     218.429     155.429
  H     -242.970     219.362     155.579
  H     -243.134     219.612     152.525
  H     -241.228     220.788     153.596
  H     -244.051     211.821     158.092
  H     -242.936     213.151     158.405
  H     -240.709     219.272     154.360
  P     -243.426     221.862     155.848
  C     -242.698     223.820     154.349
  O     -242.268     222.777     155.208
  O     -242.600     220.821     156.736
  O     -244.521     222.591     156.545
  H     -241.965     220.308     156.205
  H     -241.825     224.390     154.033
  H     -243.388     224.487     154.876
  H     -243.188     223.400     153.468
  H     -237.035     216.882     152.437
  H     -236.970     218.079     151.167
  H     -238.411     217.116     151.386

 3  4  5  6  7  8  9  10  11  12  22  25  29  30  31  32 0
 6-311+G(2d,p)
 ****
 33  36  37 0
 6-311+G(2d,p)
 ****
 1  2  13  14  15  16  17  18  19  20  21  23  24  26 0
 3-21G
 ****
 27  28  34  35  38  39  40  41  42  43  44  45  46  47  48 0
 3-21G
 ****


