%nproc=1
%NoSave
%Mem=1900MB
#P OB98/GEN NMR

erre ene a

0 1
  C      649.645     606.953    -599.751
  O      650.325     607.309    -600.934
  H      649.168     607.848    -599.342
  H      650.352     606.572    -599.016
  H      648.873     606.207    -599.946
  P      650.866     606.148    -601.898
  C      649.919     607.439    -603.915
  O      649.975     606.199    -603.228
  C      648.918     607.385    -605.075
  O      649.475     606.559    -606.140
  C      647.566     606.782    -604.690
  O      646.570     607.395    -605.516
  C      647.740     605.327    -605.089
  O      646.507     604.655    -605.206
  C      648.546     605.486    -606.388
  N      649.220     604.252    -606.786
  C      648.675     603.569    -607.868
  O      647.644     603.947    -608.464
  N      649.301     602.413    -608.232
  C      650.369     601.843    -607.595
  O      650.868     600.788    -607.951
  C      650.884     602.596    -606.431
  C      650.291     603.741    -606.089
  O      650.979     604.790    -601.270
  O      652.285     606.679    -602.403
  H      645.948     605.085    -605.895
  H      652.886     605.932    -602.577
  H      648.915     601.906    -609.024
  H      651.719     602.170    -605.889
  H      650.646     604.317    -605.239
  H      647.889     605.793    -607.212
  H      648.329     604.791    -604.338
  H      647.315     606.899    -603.640
  H      648.800     608.396    -605.490
  H      650.928     607.651    -604.304
  H      649.634     608.240    -603.219
  P      645.356     608.261    -604.899
  C      645.698     610.179    -606.587
  O      645.614     609.805    -605.210
  O      645.072     607.956    -603.460
  O      644.094     607.914    -605.823
  H      643.269     607.996    -605.305
  H      645.872     611.232    -606.661
  H      644.781     609.934    -607.080
  H      646.505     609.651    -607.051

 6  7  8  9  10  11  12  13  14  15  16  26  31  32  33  34  35 0
 6-311+G(2d,p)
 ****
 36  37 0
 6-311+G(2d,p)
 ****
 1  2  3  4  5  17  18  19  20  21  22  23  24  25 0
 3-21G
 ****
 27  28  29  30  38  39  40  41  42  43  44  45 0
 3-21G
 ****


