%nproc=1
%NoSave
%Mem=1900MB
#P OB98/GEN NMR

erre ene a

0 1
  C      273.227     535.831     -84.905
  O      273.594     535.662     -83.550
  H      273.284     536.893     -85.155
  H      272.201     535.485     -85.059
  H      273.910     535.277     -85.557
  P      273.750     534.152     -83.026
  C      276.371     534.096     -83.189
  O      275.124     533.616     -83.657
  C      277.387     532.955     -83.091
  O      277.749     532.542     -84.434
  C      278.672     533.338     -82.356
  O      279.128     532.200     -81.622
  C      279.645     533.630     -83.485
  O      281.004     533.497     -83.072
  C      279.184     532.620     -84.548
  N      279.596     533.004     -85.897
  C      280.809     532.485     -86.354
  O      281.485     531.755     -85.629
  N      281.253     532.836     -87.603
  C      280.578     533.690     -88.312
  N      281.084     534.014     -89.531
  C      279.316     534.297     -87.852
  C      278.882     533.905     -86.652
  O      272.621     533.395     -83.872
  O      273.625     533.994     -81.546
  H      281.098     532.658     -82.574
  H      272.604     533.648     -84.809
  H      278.792     535.008     -88.472
  H      277.961     534.295     -86.240
  H      279.592     531.625     -84.335
  H      279.505     534.655     -83.847
  H      278.539     534.183     -81.681
  H      276.901     532.096     -82.615
  H      281.965     533.593     -89.797
  H      276.254     534.562     -82.204
  H      280.676     534.705     -90.141
  H      276.723     534.860     -83.886
  P      278.973     532.174     -80.029
  C      276.607     531.137     -79.948
  O      277.421     532.263     -79.646
  O      279.870     533.099     -79.276
  O      279.326     530.647     -79.667
  H      279.870     530.651     -78.856
  H      275.601     531.332     -79.641
  H      276.979     530.279     -79.428
  H      276.629     530.953     -81.002

 6  7  8  9  10  11  12  13  14  15  16  26  30  31  32  33  35 0
 6-311+G(2d,p)
 ****
 37  38 0
 6-311+G(2d,p)
 ****
 1  2  3  4  5  17  18  19  20  21  22  23  24  25 0
 3-21G
 ****
 27  28  29  34  36  39  40  41  42  43  44  45  46 0
 3-21G
 ****


