%nproc=1
%NoSave
%Mem=1900MB
#P OB98/GEN NMR

erre ene a

0 1
  C        5.781      54.295     -98.581
  O        7.120      53.978     -98.905
  H        5.459      53.649     -97.760
  H        5.132      54.114     -99.442
  H        5.694      55.336     -98.262
  P        7.890      54.885     -99.979
  C        7.388      53.154    -101.824
  O        7.293      54.513    -101.418
  C        6.753      52.978    -103.201
  O        5.404      53.495    -103.198
  C        7.479      53.725    -104.313
  O        8.663      53.053    -104.694
  C        6.398      53.769    -105.381
  O        6.336      52.528    -106.100
  C        5.126      53.980    -104.531
  N        4.685      55.373    -104.505
  C        4.186      55.889    -105.696
  O        4.136      55.244    -106.743
  N        3.769      57.193    -105.654
  C        3.906      58.043    -104.596
  O        3.599      59.229    -104.638
  C        4.462      57.451    -103.371
  C        4.819      56.165    -103.381
  O        9.378      54.871     -99.889
  O        7.303      56.354     -99.719
  H        6.157      51.834    -105.436
  H        7.968      56.889     -99.246
  H        3.417      57.588    -106.511
  H        4.573      58.089    -102.505
  H        5.237      55.713    -102.489
  H        4.302      53.368    -104.921
  H        6.573      54.555    -106.114
  H        7.701      54.750    -103.994
  H        6.703      51.903    -103.422
  H        6.857      52.531    -101.096
  H        8.443      52.860    -101.841
  P       10.011      53.881    -104.928
  C        9.801      54.344    -107.447
  O        9.755      54.901    -106.138
  O       11.253      53.062    -105.045
  O       10.089      54.847    -103.654
  H       10.905      54.657    -103.153
  H        9.617      55.113    -108.168
  H        9.054      53.584    -107.538
  H       10.767      53.917    -107.619

 6  7  8  9  10  11  12  13  14  15  16  26  31  32  33  34  35 0
 6-311+G(2d,p)
 ****
 36  37 0
 6-311+G(2d,p)
 ****
 1  2  3  4  5  17  18  19  20  21  22  23  24  25 0
 3-21G
 ****
 27  28  29  30  38  39  40  41  42  43  44  45 0
 3-21G
 ****


