%nproc=1
%NoSave
%Mem=1900MB
#P OB98/GEN NMR

erre ene a

0 1
  C      783.749     395.576    -335.896
  O      784.198     396.416    -334.847
  P      783.240     397.568    -334.275
  C      782.704     396.235    -332.142
  O      782.177     396.885    -333.291
  C      782.387     397.028    -330.876
  O      780.957     397.191    -330.718
  C      782.850     396.353    -329.601
  O      784.257     396.430    -329.424
  C      782.048     397.139    -328.549
  O      782.664     398.399    -328.260
  C      780.710     397.345    -329.301
  N      779.665     396.447    -328.834
  C      779.171     396.701    -327.542
  O      779.675     397.569    -326.842
  N      778.128     395.934    -327.086
  C      777.705     394.931    -327.793
  N      776.631     394.245    -327.313
  C      778.299     394.541    -329.084
  C      779.252     395.353    -329.550
  O      782.654     398.476    -335.302
  O      784.181     398.376    -333.258
  H      784.114     399.340    -333.475
  H      782.124     398.824    -327.572
  H      777.954     393.663    -329.598
  H      779.735     395.158    -330.511
  H      780.369     398.386    -329.169
  H      781.954     396.594    -327.605
  H      782.538     395.310    -329.589
  H      782.838     398.012    -330.975
  H      776.225     394.558    -326.426
  H      783.792     396.152    -332.254
  H      776.018     393.683    -327.919
  H      782.282     395.216    -332.073
  P      784.970     395.167    -328.747
  C      786.344     394.687    -330.883
  O      785.449     394.187    -329.912
  O      783.767     394.396    -328.060
  O      786.027     395.525    -327.754
  H      784.064     394.007    -327.204
  H      786.838     393.825    -331.381
  H      787.118     395.310    -330.435
  H      785.794     395.257    -331.646
  H      784.517     394.873    -336.144
  H      783.519     396.171    -336.755
  H      782.872     395.050    -335.581

 3  4  5  6  7  8  9  10  11  12  13  24  27  28  29  30  32 0
 6-311+G(2d,p)
 ****
 34  35 0
 6-311+G(2d,p)
 ****
 1  2  14  15  16  17  18  19  20  21  22  23  25  26 0
 3-21G
 ****
 31  33  36  37  38  39  40  41  42  43  44  45  46 0
 3-21G
 ****


