%nproc=1
%NoSave
%Mem=1900MB
#P OB98/GEN NMR

erre ene a

0 1
  C       32.340      28.603     134.053
  O       32.205      27.583     135.038
  P       33.440      26.596     135.292
  C       34.633      24.645     133.960
  O       33.672      25.676     134.008
  C       34.090      23.485     133.109
  O       33.061      22.773     133.830
  C       33.475      23.942     131.789
  O       34.446      24.064     130.765
  C       32.452      22.855     131.527
  O       33.096      21.675     131.015
  C       31.911      22.600     132.954
  N       30.809      23.455     133.445
  C       29.527      22.927     133.576
  O       29.226      21.768     133.304
  N       28.571      23.783     134.054
  C       28.785      25.029     134.566
  O       27.898      25.729     135.037
  C       30.179      25.483     134.543
  C       31.105      24.700     133.985
  O       32.893      25.580     136.397
  O       34.696      27.280     135.734
  H       33.470      21.905     130.146
  H       33.397      25.676     137.226
  H       27.622      23.440     134.088
  H       30.404      26.446     134.982
  H       32.142      25.029     133.963
  H       31.573      21.562     133.058
  H       31.735      23.163     130.770
  H       32.937      24.884     131.929
  H       34.912      22.785     132.914
  H       34.874      24.289     134.965
  H       35.562      25.029     133.528
  P       35.253      25.436     130.591
  C       34.613      27.917     130.473
  O       34.135      26.586     130.505
  O       36.285      25.457     129.515
  O       35.891      25.682     132.042
  H       36.818      25.352     132.075
  H       33.776      28.585     130.255
  H       35.373      28.034     129.695
  H       35.035      28.183     131.446
  H       31.436      29.173     134.004
  H       32.532      28.156     133.100
  H       33.154      29.246     134.315

 3  4  5  6  7  8  9  10  11  12  13  23  28  29  30  31  32 0
 6-311+G(2d,p)
 ****
 33  34 0
 6-311+G(2d,p)
 ****
 1  2  14  15  16  17  18  19  20  21  22  24  25  26  27 0
 3-21G
 ****
 35  36  37  38  39  40  41  42  43  44  45 0
 3-21G
 ****


