%nproc=1
%NoSave
%Mem=1900MB
#P OB98/GEN NMR

erre ene a

0 1
  C       13.842     151.869     -11.414
  O       12.793     151.610     -12.330
  P       12.192     150.121     -12.359
  C        9.934     150.996     -11.404
  O       11.010     150.076     -11.278
  C        8.952     150.513     -12.469
  O        9.611     150.421     -13.747
  C        8.369     149.130     -12.213
  O        7.372     149.171     -11.205
  C        7.854     148.782     -13.605
  O        6.602     149.444     -13.847
  C        8.949     149.376     -14.508
  N       11.444     147.353     -18.494
  C       10.487     148.304     -18.418
  N        9.856     148.773     -17.322
  C       10.308     148.162     -16.216
  C       11.261     147.161     -16.140
  C       11.847     146.755     -17.348
  N       12.819     145.781     -17.421
  N       11.449     146.761     -14.834
  C       10.630     147.516     -14.132
  N        9.930     148.389     -14.919
  O       13.347     149.248     -11.681
  O       11.832     149.614     -13.721
  H        6.789     150.401     -13.920
  H       13.391     148.358     -12.079
  H       10.190     148.749     -19.363
  H       10.514     147.472     -13.057
  H        8.542     149.835     -15.416
  H        7.692     147.709     -13.748
  H        9.161     148.429     -11.921
  H        8.148     151.256     -12.550
  H       10.322     151.975     -11.700
  H       13.076     145.446     -18.337
  H       13.014     145.241     -16.588
  H        9.440     151.099     -10.434
  P        7.028     147.796     -10.454
  C        9.079     148.101      -8.938
  O        8.454     147.288      -9.914
  O        6.749     146.816     -11.683
  O        5.944     147.891      -9.437
  H        7.447     146.870     -12.360
  H       10.006     147.617      -8.623
  H        8.426     148.221      -8.069
  H        9.319     149.080      -9.364
  H       14.146     152.891     -11.499
  H       14.672     151.231     -11.633
  H       13.500     151.680     -10.418

 3  4  5  6  7  8  9  10  11  12  22  25  29  30  31  32 0
 6-311+G(2d,p)
 ****
 33  36  37 0
 6-311+G(2d,p)
 ****
 1  2  13  14  15  16  17  18  19  20  21  23  24  26 0
 3-21G
 ****
 27  28  34  35  38  39  40  41  42  43  44  45  46  47  48 0
 3-21G
 ****


