%nproc=1
%NoSave
%Mem=1900MB
#P OB98/GEN NMR

erre ene a

0 1
  C      424.995     545.177    -270.107
  O      425.277     545.008    -271.483
  P      426.015     546.205    -272.247
  C      426.652     544.403    -274.022
  O      426.236     545.739    -273.764
  C      425.889     543.846    -275.225
  O      425.913     544.796    -276.316
  C      426.479     542.558    -275.782
  O      426.115     541.439    -275.001
  C      425.896     542.541    -277.195
  O      424.566     541.993    -277.189
  C      425.865     544.044    -277.546
  N      426.943     544.421    -278.459
  C      426.638     545.420    -279.376
  O      425.533     545.949    -279.455
  N      427.650     545.765    -280.239
  C      428.883     545.184    -280.299
  O      429.727     545.499    -281.139
  C      429.132     544.109    -279.324
  C      428.166     543.786    -278.466
  O      427.494     546.200    -271.627
  O      425.357     547.536    -272.101
  H      424.015     542.603    -276.653
  H      427.827     547.120    -271.561
  H      427.462     546.509    -280.893
  H      430.101     543.630    -279.353
  H      428.326     542.986    -277.751
  H      424.912     544.295    -278.022
  H      426.489     541.933    -277.877
  H      427.573     542.653    -275.851
  H      424.842     543.695    -274.934
  H      426.452     543.786    -273.140
  H      427.729     544.391    -274.212
  P      427.306     540.577    -274.361
  C      425.981     540.364    -272.121
  O      426.620     539.716    -273.197
  O      428.133     541.725    -273.605
  O      428.093     539.819    -275.378
  H      427.547     542.438    -273.276
  H      425.480     541.283    -272.445
  H      426.716     540.601    -271.349
  H      425.229     539.686    -271.696
  H      424.504     544.303    -269.734
  H      424.359     546.027    -269.975
  H      425.909     545.329    -269.572

 3  4  5  6  7  8  9  10  11  12  13  23  28  29  30  31  32 0
 6-311+G(2d,p)
 ****
 33  34 0
 6-311+G(2d,p)
 ****
 1  2  14  15  16  17  18  19  20  21  22  24  25  26 0
 3-21G
 ****
 27  35  36  37  38  39  40  41  42  43  44  45 0
 3-21G
 ****


