%nproc=1
%NoSave
%Mem=1900MB
#P OB98/GEN NMR

erre ene a

0 1
  C      -44.356    -119.836     -62.166
  O      -44.231    -118.831     -63.150
  H      -44.956    -120.652     -62.576
  H      -44.858    -119.442     -61.280
  H      -43.371    -120.228     -61.894
  P      -43.443    -117.483     -62.780
  C      -43.842    -115.454     -61.236
  O      -44.323    -116.719     -61.676
  C      -44.339    -115.166     -59.813
  O      -45.771    -114.966     -59.875
  C      -44.056    -116.328     -58.846
  O      -43.372    -115.911     -57.664
  C      -45.422    -116.988     -58.686
  O      -45.593    -117.684     -57.471
  C      -46.398    -115.829     -58.908
  N      -47.719    -116.252     -59.369
  C      -48.790    -116.075     -58.494
  O      -48.710    -115.583     -57.374
  N      -50.011    -116.493     -58.962
  C      -50.255    -117.068     -60.175
  O      -51.371    -117.418     -60.539
  C      -49.080    -117.252     -61.042
  C      -47.887    -116.846     -60.609
  O      -43.030    -116.639     -63.940
  O      -42.176    -117.990     -61.942
  H      -46.343    -118.305     -57.598
  H      -41.374    -117.934     -62.498
  H      -50.795    -116.358     -58.347
  H      -49.237    -117.717     -62.008
  H      -46.998    -116.967     -61.221
  H      -46.536    -115.264     -57.985
  H      -45.545    -117.720     -59.498
  H      -43.361    -117.046     -59.295
  H      -43.888    -114.229     -59.464
  H      -44.215    -114.692     -61.929
  H      -42.746    -115.449     -61.255
  P      -41.982    -116.505     -57.151
  C      -41.283    -118.407     -55.471
  O      -42.275    -117.841     -56.320
  O      -41.039    -115.526     -56.536
  O      -41.290    -117.067     -58.497
  H      -40.324    -116.964     -58.371
  H      -41.671    -119.290     -55.008
  H      -41.013    -117.698     -54.716
  H      -40.419    -118.658     -56.050

 6  7  8  9  10  11  12  13  14  15  16  26  31  32  33  34  35 0
 6-311+G(2d,p)
 ****
 36  37 0
 6-311+G(2d,p)
 ****
 1  2  3  4  5  17  18  19  20  21  22  23  24  25 0
 3-21G
 ****
 27  28  29  30  38  39  40  41  42  43  44  45 0
 3-21G
 ****


