%nproc=1
%NoSave
%Mem=1900MB
#P OB98/GEN NMR

erre ene a

0 1
  C     -333.142    -519.988    -113.583
  O     -333.642    -518.660    -113.640
  P     -335.156    -518.364    -114.080
  C     -335.113    -516.191    -115.455
  O     -335.262    -516.765    -114.161
  C     -335.444    -514.699    -115.405
  O     -336.841    -514.556    -115.058
  C     -334.677    -513.880    -114.369
  O     -333.395    -513.436    -114.789
  C     -335.603    -512.675    -114.225
  O     -335.402    -511.773    -115.330
  C     -336.982    -513.320    -114.306
  N     -339.685    -511.432    -110.385
  C     -339.323    -510.895    -111.575
  N     -338.586    -511.460    -112.554
  C     -338.257    -512.726    -112.237
  C     -338.559    -513.406    -111.069
  C     -339.312    -512.706    -110.112
  N     -339.707    -513.260    -108.917
  N     -338.029    -514.685    -111.100
  C     -337.426    -514.765    -112.271
  N     -337.542    -513.616    -112.998
  O     -336.190    -519.044    -113.246
  O     -335.213    -518.802    -115.614
  H     -334.537    -511.342    -115.201
  H     -336.144    -518.915    -115.895
  H     -339.661    -509.886    -111.758
  H     -336.897    -515.637    -112.627
  H     -337.706    -512.696    -114.846
  H     -335.416    -512.100    -113.315
  H     -334.615    -514.404    -113.405
  H     -335.299    -514.283    -116.411
  H     -335.804    -516.695    -116.136
  H     -340.352    -512.736    -108.350
  H     -339.568    -514.255    -108.783
  H     -334.096    -516.356    -115.816
  P     -332.136    -513.863    -113.887
  C     -330.728    -511.818    -114.731
  O     -330.848    -513.223    -114.602
  O     -332.052    -515.315    -113.590
  O     -332.317    -512.952    -112.580
  H     -332.199    -511.998    -112.717
  H     -329.727    -511.589    -115.102
  H     -330.876    -511.322    -113.771
  H     -331.462    -511.447    -115.452
  H     -332.119    -519.971    -113.270
  H     -333.211    -520.437    -114.552
  H     -333.719    -520.557    -112.884

 3  4  5  6  7  8  9  10  11  12  22  25  29  30  31  32 0
 6-311+G(2d,p)
 ****
 33  36  37 0
 6-311+G(2d,p)
 ****
 1  2  13  14  15  16  17  18  19  20  21  23  24  26 0
 3-21G
 ****
 27  28  34  35  38  39  40  41  42  43  44  45  46  47  48 0
 3-21G
 ****


