%nproc=1
%NoSave
%Mem=1900MB
#P OB98/GEN NMR

erre ene a

0 1
  C      -34.879      17.776     104.909
  O      -36.058      17.037     105.171
  P      -36.840      17.305     106.546
  C      -35.003      16.276     108.117
  O      -36.316      16.208     107.591
  C      -34.992      15.823     109.580
  O      -33.616      15.777     110.049
  C      -35.771      16.737     110.534
  O      -36.364      15.899     111.536
  C      -34.679      17.600     111.140
  O      -35.059      18.176     112.381
  C      -33.535      16.586     111.238
  N      -32.215      17.207     111.347
  C      -31.203      16.484     111.970
  O      -31.360      15.363     112.453
  N      -29.987      17.110     112.050
  C      -29.706      18.381     111.641
  O      -28.601      18.898     111.753
  C      -30.825      19.115     111.034
  C      -32.003      18.501     110.907
  O      -38.312      16.811     106.165
  O      -36.751      18.715     107.021
  H      -38.313      16.046     105.566
  H      -34.263      18.566     112.789
  H      -29.227      16.588     112.465
  H      -30.646      20.133     110.710
  H      -32.844      19.023     110.465
  H      -33.697      15.919     112.094
  H      -34.434      18.416     110.449
  H      -36.548      17.312     110.023
  H      -35.384      14.798     109.626
  H      -34.643      17.307     108.062
  H      -34.337      15.653     107.511
  P      -37.971      15.826     111.612
  C      -38.307      17.521     113.578
  O      -38.396      16.194     113.111
  O      -38.183      14.235     111.561
  O      -38.685      16.542     110.513
  H      -37.611      13.758     112.184
  H      -38.938      17.625     114.465
  H      -38.646      18.235     112.824
  H      -37.273      17.744     113.854
  H      -34.479      17.484     103.961
  H      -34.158      17.581     105.675
  H      -35.109      18.821     104.893

 3  4  5  6  7  8  9  10  11  12  13  24  28  29  30  31  32 0
 6-311+G(2d,p)
 ****
 33  34 0
 6-311+G(2d,p)
 ****
 1  2  14  15  16  17  18  19  20  21  22  23  25  26  27 0
 3-21G
 ****
 35  36  37  38  39  40  41  42  43  44  45 0
 3-21G
 ****


