%nproc=1
%NoSave
%Mem=1900MB
#P OB98/GEN NMR

erre ene a

0 1
  C     -933.275     948.775    -106.269
  O     -932.973     948.112    -105.044
  P     -932.758     948.938    -103.704
  C     -933.145     946.722    -102.461
  O     -932.316     947.869    -102.589
  C     -933.026     946.151    -101.034
  O     -933.549     947.094    -100.044
  C     -933.853     944.896    -100.810
  O     -933.479     943.714    -101.527
  C     -933.853     944.802     -99.278
  O     -932.647     944.225     -98.798
  C     -933.945     946.307     -98.885
  N     -935.289     946.672     -98.424
  C     -935.850     945.799     -97.505
  O     -935.295     944.783     -97.082
  N     -937.136     946.106     -97.080
  C     -937.910     947.163     -97.543
  O     -939.033     947.363     -97.175
  C     -937.230     948.045     -98.521
  C     -935.980     947.775     -98.930
  O     -933.895     949.844    -103.279
  O     -931.386     949.715    -103.975
  H     -932.717     944.160     -97.827
  H     -930.619     949.151    -104.150
  H     -937.558     945.477     -96.441
  H     -937.785     948.900     -98.893
  H     -935.479     948.405     -99.633
  H     -933.213     946.529     -98.099
  H     -934.676     944.190     -98.911
  H     -934.902     945.086    -101.133
  H     -931.973     945.999    -100.811
  H     -932.807     945.951    -103.169
  H     -934.178     946.996    -102.701
  P     -934.490     942.865    -102.404
  C     -932.517     942.429    -104.071
  O     -933.621     941.883    -103.357
  O     -935.622     943.622    -103.030
  O     -935.073     941.834    -101.330
  H     -935.988     941.581    -101.569
  H     -932.103     941.646    -104.683
  H     -931.753     942.780    -103.326
  H     -932.834     943.254    -104.715
  H     -933.382     948.051    -107.049
  H     -932.481     949.449    -106.515
  H     -934.188     949.322    -106.163

 3  4  5  6  7  8  9  10  11  12  13  23  28  29  30  31  32 0
 6-311+G(2d,p)
 ****
 33  34 0
 6-311+G(2d,p)
 ****
 1  2  14  15  16  17  18  19  20  21  22  24  25  26  27 0
 3-21G
 ****
 35  36  37  38  39  40  41  42  43  44  45 0
 3-21G
 ****


