%nproc=1
%NoSave
%Mem=1900MB
#P OB98/GEN NMR

erre ene a

0 1
  C      -60.116    -116.533    -198.389
  O      -59.497    -117.789    -198.610
  P      -59.507    -118.488    -200.057
  C      -61.558    -120.022    -199.698
  O      -61.041    -118.866    -200.335
  C      -62.551    -120.735    -200.618
  O      -63.791    -119.981    -200.637
  C      -62.076    -120.881    -202.070
  O      -62.578    -122.129    -202.559
  C      -62.758    -119.719    -202.767
  O      -62.876    -119.916    -204.169
  C      -64.092    -119.674    -202.014
  N      -64.758    -118.382    -202.131
  C      -65.947    -118.327    -202.859
  O      -66.402    -119.332    -203.403
  N      -66.602    -117.124    -202.958
  C      -66.073    -116.055    -202.447
  N      -66.791    -114.902    -202.520
  C      -64.766    -116.049    -201.765
  C      -64.185    -117.237    -201.624
  O      -58.549    -119.617    -200.213
  O      -59.274    -117.283    -201.079
  H      -62.030    -119.662    -204.586
  H      -58.315    -117.070    -201.212
  H      -64.353    -115.127    -201.381
  H      -63.235    -117.333    -201.115
  H      -64.758    -120.467    -202.373
  H      -62.181    -118.804    -202.603
  H      -60.986    -120.870    -202.161
  H      -62.773    -121.720    -200.188
  H      -67.751    -114.981    -202.839
  H      -62.082    -119.711    -198.790
  H      -66.609    -114.133    -201.883
  H      -60.737    -120.687    -199.412
  P      -61.611    -123.037    -203.464
  C      -62.919    -122.594    -205.660
  O      -61.691    -122.500    -204.971
  O      -62.446    -124.409    -203.554
  O      -60.249    -123.310    -202.914
  H      -61.827    -125.146    -203.715
  H      -62.790    -122.177    -206.663
  H      -63.695    -122.022    -205.144
  H      -63.228    -123.639    -205.754
  H      -59.994    -116.251    -197.364
  H      -61.159    -116.604    -198.618
  H      -59.662    -115.796    -199.018

 3  4  5  6  7  8  9  10  11  12  13  23  27  28  29  30  32 0
 6-311+G(2d,p)
 ****
 34  35 0
 6-311+G(2d,p)
 ****
 1  2  14  15  16  17  18  19  20  21  22  24  25  26 0
 3-21G
 ****
 31  33  36  37  38  39  40  41  42  43  44  45  46 0
 3-21G
 ****


