%nproc=1
%NoSave
%Mem=1900MB
#P OB98/GEN NMR

erre ene a

0 1
  C      -94.169     110.537     794.394
  O      -92.933     110.391     793.709
  P      -92.798     109.399     792.452
  C      -93.290     106.892     792.079
  O      -93.391     108.002     792.963
  C      -93.215     105.598     792.883
  O      -94.377     105.475     793.724
  C      -93.175     104.327     792.044
  O      -91.891     104.132     791.470
  C      -93.606     103.287     793.062
  O      -92.503     102.925     793.904
  C      -94.656     104.063     793.886
  N      -96.024     103.747     793.492
  C      -96.589     102.604     794.050
  O      -95.961     101.897     794.842
  N      -97.894     102.273     793.727
  C      -98.556     103.021     792.903
  N      -99.855     102.693     792.676
  C      -97.983     104.210     792.247
  C      -96.731     104.511     792.582
  O      -91.437     109.322     791.863
  O      -93.917     109.895     791.425
  H      -91.831     102.503     793.333
  H      -93.600     110.602     790.807
  H      -98.577     104.792     791.547
  H      -96.244     105.384     792.161
  H      -94.542     103.851     794.949
  H      -93.995     102.365     792.613
  H      -93.920     104.385     791.235
  H      -92.329     105.648     793.535
  H     -100.258     101.977     793.275
  H      -92.382     106.999     791.486
  H     -100.512     103.361     792.283
  H      -94.154     106.886     791.408
  P      -91.798     103.248     790.126
  C      -92.304     100.778     789.546
  O      -92.386     101.810     790.522
  O      -90.219     103.012     789.959
  O      -92.407     103.894     788.929
  H      -89.862     103.614     789.285
  H      -92.513      99.822     790.034
  H      -91.301     100.735     789.114
  H      -93.046     100.944     788.761
  H      -94.053     111.237     795.194
  H      -94.471     109.590     794.790
  H      -94.914     110.894     793.714

 3  4  5  6  7  8  9  10  11  12  13  23  27  28  29  30  32 0
 6-311+G(2d,p)
 ****
 34  35 0
 6-311+G(2d,p)
 ****
 1  2  14  15  16  17  18  19  20  21  22  24  25  26 0
 3-21G
 ****
 31  33  36  37  38  39  40  41  42  43  44  45  46 0
 3-21G
 ****


