%nproc=1
%NoSave
%Mem=1900MB
#P OB98/GEN NMR

erre ene a

0 1
  C      129.734     -57.411     270.096
  O      129.092     -58.529     270.719
  P      128.133     -59.442     269.819
  C      129.641     -61.363     268.926
  O      128.676     -60.948     269.881
  C      130.609     -62.373     269.552
  O      131.572     -61.728     270.416
  C      129.920     -63.429     270.406
  O      129.406     -64.492     269.617
  C      131.082     -63.927     271.249
  O      131.875     -64.862     270.488
  C      131.874     -62.639     271.504
  N      131.701     -63.291     276.517
  C      132.115     -64.152     275.521
  N      132.558     -65.366     275.922
  N      132.101     -63.854     274.249
  C      131.653     -62.602     273.999
  C      131.215     -61.656     274.898
  C      131.222     -62.005     276.301
  O      130.855     -61.289     277.226
  N      130.829     -60.503     274.266
  C      131.052     -60.742     272.986
  N      131.538     -62.008     272.771
  O      128.505     -58.992     268.328
  O      126.676     -59.267     270.100
  H      132.387     -64.336     269.845
  H      127.741     -59.124     267.740
  H      131.732     -63.574     277.483
  H      130.883     -60.035     272.186
  H      132.957     -62.803     271.503
  H      130.750     -64.453     272.148
  H      132.642     -65.644     276.886
  H      129.151     -62.979     271.050
  H      132.897     -66.000     275.206
  H      131.154     -62.870     268.737
  H      130.199     -60.501     268.549
  H      129.126     -61.784     268.058
  P      127.814     -64.714     269.605
  C      127.830     -64.938     267.019
  O      127.493     -65.523     268.260
  O      127.255     -63.243     269.320
  O      127.258     -65.285     270.863
  H      126.391     -63.127     269.754
  H      127.692     -65.686     266.234
  H      128.875     -64.615     267.015
  H      127.177     -64.088     266.812
  H      130.338     -56.900     270.816
  H      128.992     -56.742     269.713
  H      130.352     -57.756     269.293

 3  4  5  6  7  8  9  10  11  12  23  26  30  31 0
 6-311+G(2d,p)
 ****
 33  35  36  37  38 0
 6-311+G(2d,p)
 ****
 1  2  13  14  15  16  17  18  19  20  21  22  24  25 0
 3-21G
 ****
 27  28  29  32  34  39  40  41  42  43  44  45  46  47  48  49 0
 3-21G
 ****


