%nproc=1
%NoSave
%Mem=1900MB
#P OB98/GEN NMR

erre ene a

0 1
  C      131.638     220.371     -39.396
  O      131.334     221.697     -39.776
  H      131.576     220.295     -38.307
  H      132.655     220.119     -39.708
  H      130.928     219.668     -39.840
  P      131.168     221.976     -41.348
  C      129.842     223.695     -42.769
  O      130.030     223.097     -41.495
  C      128.529     224.474     -42.797
  O      127.406     223.566     -42.740
  C      128.352     225.446     -41.634
  O      129.018     226.677     -41.871
  C      126.842     225.627     -41.651
  O      126.471     226.518     -42.723
  C      126.358     224.203     -41.954
  N      122.778     221.972     -39.143
  C      122.660     222.729     -40.294
  N      121.407     222.927     -40.757
  N      123.676     223.249     -40.931
  C      124.866     222.977     -40.346
  C      125.112     222.240     -39.209
  C      123.980     221.664     -38.520
  O      124.029     220.966     -37.510
  N      126.452     222.176     -38.933
  C      127.016     222.889     -39.886
  N      126.097     223.403     -40.767
  O      130.447     220.648     -41.886
  O      132.435     222.242     -42.088
  H      125.546     226.781     -42.560
  H      130.786     220.447     -42.780
  H      121.960     221.605     -38.686
  H      128.079     223.060     -39.986
  H      125.443     224.191     -42.555
  H      126.460     226.061     -40.727
  H      120.578     222.598     -40.288
  H      128.654     224.995     -40.683
  H      121.298     223.451     -41.618
  H      128.472     225.004     -43.755
  H      129.813     222.912     -43.533
  H      130.681     224.366     -42.974
  P      128.989     227.776     -40.697
  C      130.450     229.838     -40.097
  O      130.207     228.772     -41.008
  O      129.500     226.954     -39.422
  O      127.663     228.413     -40.462
  H      129.187     227.383     -38.601
  H      131.287     230.412     -40.435
  H      130.660     229.438     -39.127
  H      129.585     230.466     -40.044

 6  7  8  9  10  11  12  13  14  15  26  29  33  34 0
 6-311+G(2d,p)
 ****
 36  38  39  40  41 0
 6-311+G(2d,p)
 ****
 1  2  3  4  5  16  17  18  19  20  21  22  23  24  25 0
 3-21G
 ****
 27  28  30  31  32  35  37  42  43  44  45  46  47 0
 3-21G
 ****
 48  49 0
 3-21G
 ****


