%nproc=1
%NoSave
%Mem=1900MB
#P OB98/GEN NMR

erre ene a

0 1
  C      123.048       9.287    -329.176
  O      122.848       9.343    -330.575
  H      122.300       8.618    -328.741
  H      122.929      10.278    -328.731
  H      124.043       8.895    -328.948
  P      123.823      10.270    -331.443
  C      125.448       8.320    -331.918
  O      125.278       9.603    -331.331
  C      126.888       8.149    -332.390
  O      127.178       9.063    -333.464
  C      127.932       8.407    -331.304
  O      128.076       7.269    -330.472
  C      129.157       8.684    -332.161
  O      129.683       7.444    -332.670
  C      128.552       9.516    -333.305
  N      130.819      13.930    -334.346
  C      131.160      12.645    -334.726
  N      132.292      12.519    -335.452
  N      130.466      11.582    -334.405
  C      129.399      11.859    -333.619
  C      128.972      13.085    -333.165
  C      129.714      14.257    -333.572
  O      129.436      15.414    -333.271
  N      127.887      12.961    -332.334
  C      127.638      11.667    -332.318
  N      128.539      10.951    -333.070
  O      123.805      11.735    -331.125
  O      123.398       9.976    -332.955
  H      130.027       6.951    -331.903
  H      122.728      10.613    -333.264
  H      131.402      14.704    -334.610
  H      126.823      11.197    -331.781
  H      129.066       9.349    -334.257
  H      129.959       9.178    -331.615
  H      132.994      13.246    -335.477
  H      127.701       9.310    -330.727
  H      132.586      11.582    -335.697
  H      126.989       7.134    -332.796
  H      124.758       8.249    -332.765
  H      125.201       7.535    -331.196
  P      128.842       7.363    -329.064
  C      126.747       8.228    -327.819
  O      128.069       8.511    -328.251
  O      130.316       7.553    -329.163
  O      128.411       6.040    -328.284
  H      128.999       5.265    -328.463
  H      126.355       9.074    -327.294
  H      126.758       7.378    -327.169
  H      126.131       8.018    -328.669

 6  7  8  9  10  11  12  13  14  15  26  29  33  34 0
 6-311+G(2d,p)
 ****
 36  38  39  40  41 0
 6-311+G(2d,p)
 ****
 1  2  3  4  5  16  17  18  19  20  21  22  23  24  25 0
 3-21G
 ****
 27  28  30  31  32  35  37  42  43  44  45  46  47 0
 3-21G
 ****
 48  49 0
 3-21G
 ****


