%nproc=1
%NoSave
%Mem=1900MB
#P OB98/GEN NMR

erre ene a

0 1
  C      564.179     -69.040    -433.074
  O      565.020     -68.117    -433.739
  H      564.610     -69.320    -432.108
  H      563.210     -68.562    -432.906
  H      564.030     -69.933    -433.689
  P      566.537     -68.586    -433.990
  C      567.109     -67.540    -431.691
  O      567.455     -67.664    -433.058
  C      568.344     -67.167    -430.858
  O      569.328     -68.209    -430.934
  C      569.060     -65.905    -431.329
  O      568.378     -64.714    -430.890
  C      570.402     -66.072    -430.640
  O      570.299     -65.650    -429.257
  C      570.628     -67.582    -430.728
  N      575.235     -69.542    -431.894
  C      574.643     -69.276    -430.696
  N      573.425     -68.742    -430.472
  C      572.783     -68.499    -431.619
  C      573.254     -68.717    -432.898
  C      574.551     -69.266    -433.018
  N      575.169     -69.519    -434.228
  N      572.315     -68.367    -433.843
  C      571.287     -67.929    -433.144
  N      571.517     -67.988    -431.799
  O      566.847     -68.066    -435.465
  O      566.768     -70.054    -433.865
  H      569.575     -66.158    -428.860
  H      567.429     -68.715    -435.918
  H      575.228     -69.510    -429.819
  H      570.351     -67.579    -433.575
  H      571.016     -67.989    -429.777
  H      571.197     -65.476    -431.086
  H      569.200     -65.894    -432.436
  H      568.026     -67.076    -429.809
  H      566.709     -68.499    -431.324
  H      575.995     -70.085    -434.250
  H      574.633     -69.327    -435.075
  H      566.329     -66.776    -431.583
  P      568.282     -63.488    -431.925
  C      570.537     -62.472    -431.142
  O      569.139     -62.291    -431.262
  O      566.770     -63.022    -431.764
  O      568.621     -63.816    -433.345
  H      566.470     -62.555    -432.591
  H      570.971     -61.605    -430.689
  H      570.962     -62.618    -432.113
  H      570.735     -63.330    -430.533

 6  7  8  9  10  11  12  13  14  15  25  28  32  33  34  35 0
 6-311+G(2d,p)
 ****
 36  39  40 0
 6-311+G(2d,p)
 ****
 1  2  3  4  5  16  17  18  19  20  21  22  23  24 0
 3-21G
 ****
 26  27  29  30  31  37  38  41  42  43  44  45  46  47  48 0
 3-21G
 ****


