%nproc=1
%NoSave
%Mem=1900MB
#P OB98/GEN NMR

erre ene a

0 1
  C       -2.940     568.130    1927.036
  O       -2.413     567.835    1925.764
  H       -2.193     568.725    1927.584
  H       -3.134     567.225    1927.601
  H       -3.854     568.715    1926.942
  P       -3.259     566.863    1924.799
  C       -3.594     568.753    1923.044
  O       -4.223     567.812    1923.917
  C       -4.623     569.743    1922.499
  O       -5.349     570.357    1923.611
  C       -3.997     570.914    1921.678
  O       -4.951     571.304    1920.699
  C       -3.843     571.979    1922.778
  O       -3.590     573.235    1922.187
  C       -5.166     571.784    1923.526
  N       -5.138     572.407    1924.838
  C       -5.640     573.704    1924.905
  O       -6.062     574.277    1923.914
  N       -5.640     574.354    1926.121
  C       -5.114     573.774    1927.157
  N       -5.130     574.482    1928.333
  C       -4.520     572.422    1927.127
  C       -4.566     571.778    1925.939
  O       -3.961     565.718    1925.481
  O       -2.191     566.336    1923.731
  H       -4.213     573.384    1921.420
  H       -1.955     565.409    1923.933
  H       -4.078     571.999    1928.013
  H       -4.149     570.790    1925.807
  H       -6.018     572.184    1922.956
  H       -3.002     571.740    1923.407
  H       -3.039     570.630    1921.210
  H       -5.374     569.200    1921.885
  H       -5.505     575.398    1928.314
  H       -3.140     568.187    1922.223
  H       -4.724     574.136    1929.199
  H       -2.798     569.303    1923.579
  P       -4.733     571.064    1919.120
  C       -6.453     569.152    1918.717
  O       -5.055     569.510    1918.764
  O       -3.411     571.549    1918.603
  O       -5.944     571.846    1918.401
  H       -5.640     572.171    1917.520
  H       -6.547     568.114    1918.476
  H       -6.946     569.738    1917.970
  H       -6.901     569.339    1919.670

 6  7  8  9  10  11  12  13  14  15  16  26  30  31  32  33  35 0
 6-311+G(2d,p)
 ****
 37  38 0
 6-311+G(2d,p)
 ****
 1  2  3  4  5  17  18  19  20  21  22  23  24  25 0
 3-21G
 ****
 27  28  29  34  36  39  40  41  42  43  44  45  46 0
 3-21G
 ****


