%nproc=1
%NoSave
%Mem=1900MB
#P OB98/GEN NMR

erre ene a

0 1
  C       27.051      28.710      18.866
  O       25.876      28.327      19.549
  H       27.921      28.589      19.515
  H       27.175      28.068      17.989
  H       26.974      29.749      18.535
  P       25.530      29.125      20.897
  C       25.234      26.941      22.261
  O       24.635      28.146      21.806
  C       24.176      25.847      22.381
  O       23.723      25.502      21.047
  C       24.661      24.559      23.068
  O       23.848      24.272      24.210
  C       24.436      23.468      22.031
  O       23.936      22.255      22.591
  C       23.438      24.098      21.067
  N       22.743      19.865      18.317
  C       22.199      20.271      19.486
  N       22.344      21.456      20.112
  C       23.128      22.279      19.395
  C       23.734      22.015      18.178
  C       23.531      20.733      17.641
  N       24.130      20.300      16.479
  N       24.472      23.104      17.753
  C       24.349      23.992      18.718
  N       23.562      23.530      19.740
  O       24.487      30.238      20.407
  O       26.702      29.733      21.590
  H       24.631      21.914      23.185
  H       24.747      31.109      20.763
  H       21.568      19.544      19.989
  H       24.840      24.957      18.751
  H       22.402      23.966      21.401
  H       25.389      23.252      21.533
  H       25.714      24.608      23.365
  H       23.312      26.260      22.917
  H       25.686      27.106      23.245
  H       24.023      19.330      16.231
  H       24.803      20.903      16.030
  H       26.021      26.646      21.560
  P       24.617      23.781      25.536
  C       22.503      22.388      26.142
  O       23.501      23.299      26.585
  O       25.149      25.152      26.169
  O       25.724      22.817      25.273
  H       25.947      24.984      26.705
  H       21.839      22.165      26.951
  H       22.968      21.486      25.804
  H       21.951      22.827      25.338

 6  7  8  9  10  11  12  13  14  15  25  28  32  33  34  35 0
 6-311+G(2d,p)
 ****
 36  39  40 0
 6-311+G(2d,p)
 ****
 1  2  3  4  5  16  17  18  19  20  21  22  23  24 0
 3-21G
 ****
 26  27  29  30  31  37  38  41  42  43  44  45  46  47  48 0
 3-21G
 ****


