%nproc=1
%NoSave
%Mem=1900MB
#P OB98/GEN NMR

erre ene a

0 1
  C      288.997     194.577    -368.814
  O      288.407     193.291    -368.843
  H      288.481     195.211    -369.538
  H      290.053     194.520    -369.084
  H      288.888     195.023    -367.820
  P      289.013     192.153    -367.892
  C      290.689     191.325    -369.674
  O      289.562     191.003    -368.866
  C      291.232     190.067    -370.351
  O      291.771     189.162    -369.369
  C      290.183     189.272    -371.135
  O      289.982     189.845    -372.413
  C      290.863     187.917    -371.204
  O      291.902     187.942    -372.201
  C      291.487     187.805    -369.800
  N      289.828     183.388    -367.923
  C      290.591     183.643    -369.043
  N      290.934     182.572    -369.791
  N      290.970     184.836    -369.411
  C      290.495     185.817    -368.612
  C      289.716     185.697    -367.483
  C      289.357     184.361    -367.052
  O      288.708     184.094    -366.048
  N      289.351     186.920    -366.986
  C      289.951     187.784    -367.780
  N      290.654     187.167    -368.793
  O      288.107     191.648    -366.810
  O      290.351     192.800    -367.303
  H      292.278     187.043    -372.252
  H      290.181     193.249    -366.454
  H      289.558     182.446    -367.693
  H      289.917     188.864    -367.675
  H      292.437     187.254    -369.817
  H      290.175     187.111    -371.477
  H      290.547     181.650    -369.647
  H      289.250     189.176    -370.573
  H      291.445     182.742    -370.650
  H      292.064     190.368    -371.001
  H      291.449     191.765    -369.021
  H      290.414     192.060    -370.437
  P      288.769     190.868    -372.693
  C      287.787     189.494    -374.652
  O      288.425     190.694    -374.250
  O      289.024     192.272    -372.266
  O      287.512     190.180    -371.991
  H      287.438     190.400    -371.028
  H      287.620     189.516    -375.709
  H      286.850     189.401    -374.145
  H      288.410     188.659    -374.406

 6  7  8  9  10  11  12  13  14  15  26  29  33  34 0
 6-311+G(2d,p)
 ****
 36  38  39  40  41 0
 6-311+G(2d,p)
 ****
 1  2  3  4  5  16  17  18  19  20  21  22  23  24  25 0
 3-21G
 ****
 27  28  30  31  32  35  37  42  43  44  45  46  47 0
 3-21G
 ****
 48  49 0
 3-21G
 ****


