%nproc=1
%NoSave
%Mem=1900MB
#P OB98/GEN NMR

erre ene a

0 1
  C     -493.391     664.258     268.541
  O     -494.550     663.440     268.585
  H     -493.152     664.578     269.558
  H     -493.563     665.145     267.925
  H     -492.551     663.692     268.141
  P     -495.270     663.079     267.195
  C     -493.766     660.983     267.013
  O     -494.203     662.182     266.383
  C     -494.656     659.799     266.632
  O     -494.745     659.672     265.197
  C     -494.135     658.450     267.115
  O     -494.140     658.283     268.510
  C     -494.923     657.486     266.240
  O     -496.226     657.227     266.756
  C     -495.017     658.282     264.907
  N     -494.122     657.754     263.883
  C     -494.375     656.454     263.466
  O     -495.277     655.747     263.929
  N     -493.531     655.968     262.506
  C     -492.468     656.610     261.979
  O     -491.727     656.108     261.127
  C     -492.224     657.972     262.483
  C     -493.054     658.483     263.398
  O     -495.809     664.245     266.414
  O     -496.387     662.013     267.610
  H     -496.112     656.721     267.582
  H     -497.057     661.896     266.890
  H     -493.713     655.025     262.184
  H     -491.371     658.519     262.091
  H     -492.898     659.474     263.789
  H     -496.044     658.244     264.523
  H     -494.415     656.521     266.143
  H     -493.081     658.363     266.804
  H     -495.660     659.991     267.016
  H     -493.818     661.142     268.103
  H     -492.724     660.785     266.733
  P     -493.194     657.255     269.278
  C     -491.814     659.063     270.584
  O     -491.812     657.996     269.638
  O     -493.124     655.862     268.736
  O     -493.910     657.175     270.728
  H     -493.798     656.266     271.054
  H     -490.818     659.437     270.702
  H     -492.174     658.704     271.526
  H     -492.451     659.848     270.234

 6  7  8  9  10  11  12  13  14  15  16  26  31  32  33  34  35 0
 6-311+G(2d,p)
 ****
 36  37 0
 6-311+G(2d,p)
 ****
 1  2  3  4  5  17  18  19  20  21  22  23  24  25 0
 3-21G
 ****
 27  28  29  30  38  39  40  41  42  43  44  45 0
 3-21G
 ****


