%nproc=1
%NoSave
%Mem=1900MB
#P OB98/GEN NMR

erre ene a

0 1
  C      -16.991     115.807      69.855
  O      -17.777     115.096      68.927
  H      -16.137     115.183      70.137
  H      -17.567     116.024      70.758
  H      -16.617     116.734      69.416
  P      -19.129     115.759      68.371
  C      -18.269     115.255      66.006
  O      -18.775     116.255      66.880
  C      -18.402     115.684      64.544
  O      -19.809     115.790      64.195
  C      -17.746     117.038      64.236
  O      -16.959     116.934      63.048
  C      -18.929     117.959      63.984
  O      -18.601     119.079      63.168
  C      -19.939     116.974      63.388
  N      -21.295     117.506      63.397
  C      -21.727     118.112      62.213
  O      -20.980     118.167      61.236
  N      -22.971     118.686      62.180
  C      -23.701     118.699      63.251
  N      -24.912     119.310      63.159
  C      -23.273     118.096      64.530
  C      -22.072     117.519      64.531
  O      -19.723     116.800      69.258
  O      -20.113     114.525      68.106
  H      -17.829     119.538      63.567
  H      -21.042     114.852      68.108
  H      -23.917     118.138      65.395
  H      -21.672     117.051      65.424
  H      -19.672     116.713      62.356
  H      -19.302     118.339      64.945
  H      -17.118     117.406      65.047
  H      -17.988     114.889      63.911
  H      -25.163     119.717      62.266
  H      -18.820     114.324      66.183
  H      -25.555     119.404      63.930
  H      -17.211     115.097      66.237
  P      -15.420     117.372      63.176
  C      -14.450     115.346      61.877
  O      -14.521     116.045      63.111
  O      -15.299     117.849      64.699
  O      -15.029     118.455      62.227
  H      -15.179     118.817      64.733
  H      -13.818     114.489      61.988
  H      -14.047     115.991      61.124
  H      -15.431     115.031      61.589

 6  7  8  9  10  11  12  13  14  15  16  26  30  31  32  33  35 0
 6-311+G(2d,p)
 ****
 37  38 0
 6-311+G(2d,p)
 ****
 1  2  3  4  5  17  18  19  20  21  22  23  24  25 0
 3-21G
 ****
 27  28  29  34  36  39  40  41  42  43  44  45  46 0
 3-21G
 ****


