%nproc=1
%NoSave
%Mem=1900MB
#P OB98/GEN NMR

erre ene a

0 1
  C        2.535    -181.217     -71.782
  O        1.369    -181.673     -71.130
  H        3.391    -181.396     -71.129
  H        2.466    -180.146     -71.984
  H        2.687    -181.765     -72.717
  P       -0.048    -181.470     -71.851
  C       -1.622    -180.661     -69.973
  O       -1.176    -181.767     -70.749
  C       -2.631    -181.128     -68.916
  O       -3.706    -181.812     -69.605
  C       -2.010    -182.099     -67.902
  O       -2.225    -181.701     -66.551
  C       -2.551    -183.454     -68.344
  O       -2.625    -184.417     -67.314
  C       -3.892    -183.101     -68.991
  N       -4.349    -184.079     -69.976
  C       -4.617    -185.367     -69.521
  O       -4.512    -185.741     -68.356
  N       -5.034    -186.258     -70.478
  C       -5.191    -185.997     -71.806
  O       -5.571    -186.836     -72.614
  C       -4.865    -184.627     -72.230
  C       -4.465    -183.746     -71.311
  O       -0.226    -182.202     -73.138
  O       -0.156    -179.886     -72.056
  H       -2.994    -185.235     -67.710
  H       -0.001    -179.669     -72.995
  H       -5.246    -187.189     -70.158
  H       -4.966    -184.390     -73.280
  H       -4.219    -182.725     -71.589
  H       -4.672    -183.007     -68.234
  H       -1.881    -183.858     -69.113
  H       -0.918    -182.108     -67.990
  H       -3.060    -180.248     -68.425
  H       -2.090    -179.941     -70.652
  H       -0.765    -180.186     -69.483
  P       -1.257    -180.755     -65.709
  C        0.622    -182.542     -65.272
  O       -0.365    -181.665     -64.744
  O       -1.891    -179.550     -65.099
  O       -0.186    -180.238     -66.799
  H        0.074    -179.337     -66.521
  H        1.106    -183.059     -64.470
  H        1.346    -181.976     -65.820
  H        0.157    -183.252     -65.924

 6  7  8  9  10  11  12  13  14  15  16  26  31  32  33  34  35 0
 6-311+G(2d,p)
 ****
 36  37 0
 6-311+G(2d,p)
 ****
 1  2  3  4  5  17  18  19  20  21  22  23  24  25 0
 3-21G
 ****
 27  28  29  30  38  39  40  41  42  43  44  45 0
 3-21G
 ****


