%nproc=1
%NoSave
%Mem=1900MB
#P OB98/GEN NMR

erre ene a

0 1
  C     -306.678    -262.096    1047.098
  O     -305.738    -261.469    1046.247
  H     -307.669    -262.015    1046.657
  H     -306.683    -261.620    1048.083
  H     -306.429    -263.163    1047.208
  P     -304.226    -261.387    1046.779
  C     -303.342    -263.110    1045.035
  O     -303.620    -262.828    1046.394
  C     -301.847    -263.388    1044.852
  O     -301.431    -264.466    1045.722
  C     -301.442    -263.824    1043.433
  O     -301.380    -262.760    1042.522
  C     -300.085    -264.415    1043.724
  O     -299.137    -263.355    1043.950
  C     -300.370    -265.194    1045.028
  N     -300.773    -266.587    1044.796
  C     -299.801    -267.568    1045.036
  O     -298.667    -267.247    1045.409
  N     -300.120    -268.876    1044.799
  C     -301.303    -269.203    1044.391
  N     -301.558    -270.529    1044.183
  C     -302.360    -268.206    1044.138
  C     -302.033    -266.934    1044.367
  O     -304.387    -261.486    1048.368
  O     -303.422    -260.218    1046.312
  H     -299.098    -262.836    1043.138
  H     -303.501    -261.599    1048.798
  H     -303.342    -268.511    1043.792
  H     -302.760    -266.151    1044.212
  H     -299.485    -265.197    1045.702
  H     -299.693    -265.027    1042.910
  H     -302.104    -264.623    1043.062
  H     -301.294    -262.491    1045.153
  H     -300.801    -271.182    1044.298
  H     -303.632    -262.239    1044.430
  H     -302.404    -270.844    1043.723
  H     -303.907    -263.975    1044.697
  P     -302.668    -262.508    1041.583
  C     -303.156    -260.050    1042.335
  O     -303.580    -261.413    1042.330
  O     -303.503    -263.862    1041.752
  O     -302.361    -262.204    1040.151
  H     -303.972    -264.097    1040.926
  H     -303.868    -259.457    1042.869
  H     -303.081    -259.696    1041.328
  H     -302.201    -259.975    1042.812

 6  7  8  9  10  11  12  13  14  15  16  26  30  31  32  33  35 0
 6-311+G(2d,p)
 ****
 37  38 0
 6-311+G(2d,p)
 ****
 1  2  3  4  5  17  18  19  20  21  22  23  24  25 0
 3-21G
 ****
 27  28  29  34  36  39  40  41  42  43  44  45  46 0
 3-21G
 ****


