%nproc=1
%NoSave
%Mem=1900MB
#P OB98/GEN NMR

erre ene a

0 1
  C      133.620      44.749      38.257
  O      133.023      45.832      38.944
  H      132.926      44.393      37.493
  H      133.820      43.935      38.959
  H      134.550      45.061      37.772
  P      133.984      46.716      39.878
  C      132.754      46.052      42.067
  O      133.968      46.027      41.329
  C      132.775      44.983      43.155
  O      133.232      43.723      42.614
  C      133.692      45.302      44.332
  O      133.052      46.149      45.278
  C      133.909      43.911      44.905
  O      132.742      43.507      45.656
  C      134.031      43.059      43.634
  N      138.645      41.200      44.628
  C      137.510      41.224      45.416
  N      137.623      40.681      46.648
  N      136.369      41.735      45.036
  C      136.408      42.264      43.790
  C      137.472      42.306      42.915
  C      138.723      41.722      43.342
  O      139.754      41.666      42.678
  N      137.135      42.924      41.740
  C      135.875      43.273      41.911
  N      135.388      42.899      43.139
  O      133.136      48.060      40.085
  O      135.332      47.007      39.310
  H      132.689      44.090      46.435
  H      133.500      48.754      39.504
  H      139.501      40.802      44.973
  H      135.272      43.790      41.178
  H      133.621      42.052      43.767
  H      134.758      43.864      45.590
  H      138.479      40.291      47.012
  H      134.652      45.717      44.000
  H      136.803      40.684      47.242
  H      131.743      44.835      43.498
  H      131.919      45.863      41.385
  H      132.635      47.042      42.519
  P      133.895      47.365      45.898
  C      134.679      45.812      47.823
  O      135.061      46.716      46.797
  O      132.886      47.973      46.980
  O      134.336      48.399      44.922
  H      132.584      48.857      46.695
  H      135.552      45.463      48.334
  H      134.162      44.980      47.391
  H      134.035      46.311      48.517

 6  7  8  9  10  11  12  13  14  15  26  29  33  34 0
 6-311+G(2d,p)
 ****
 36  38  39  40  41 0
 6-311+G(2d,p)
 ****
 1  2  3  4  5  16  17  18  19  20  21  22  23  24  25 0
 3-21G
 ****
 27  28  30  31  32  35  37  42  43  44  45  46  47 0
 3-21G
 ****
 48  49 0
 3-21G
 ****


