%nproc=1
%NoSave
%Mem=1900MB
#P OB98/GEN NMR

erre ene a

0 1
  C     -484.183    -482.645     689.251
  O     -485.034    -483.764     689.118
  H     -483.262    -482.959     689.747
  H     -484.663    -481.871     689.858
  H     -483.936    -482.243     688.266
  P     -486.498    -483.485     688.512
  C     -485.561    -483.162     686.098
  O     -486.199    -482.572     687.223
  C     -486.448    -483.026     684.865
  O     -486.737    -481.631     684.601
  C     -485.830    -483.559     683.576
  O     -485.873    -484.973     683.472
  C     -486.733    -482.889     682.556
  O     -488.008    -483.555     682.528
  C     -486.854    -481.471     683.158
  N     -485.830    -480.545     682.660
  C     -486.261    -479.547     681.783
  O     -487.446    -479.467     681.455
  N     -485.331    -478.677     681.264
  C     -484.085    -478.780     681.605
  N     -483.213    -477.892     681.057
  C     -483.588    -479.805     682.539
  C     -484.507    -480.646     683.021
  O     -487.131    -482.436     689.542
  O     -487.343    -484.685     688.251
  H     -488.435    -483.381     683.388
  H     -487.981    -482.083     689.181
  H     -482.538    -479.861     682.786
  H     -484.213    -481.430     683.715
  H     -487.842    -481.040     682.956
  H     -486.334    -482.918     681.540
  H     -484.805    -483.187     683.439
  H     -487.400    -483.521     685.080
  H     -483.573    -477.239     680.378
  H     -485.382    -484.221     686.319
  H     -482.210    -477.985     681.143
  H     -484.599    -482.674     685.911
  P     -484.492    -485.734     683.178
  C     -483.675    -486.199     685.610
  O     -483.522    -485.431     684.417
  O     -483.851    -484.879     681.989
  O     -484.637    -487.175     682.811
  H     -483.349    -485.452     681.379
  H     -482.958    -485.877     686.336
  H     -483.519    -487.234     685.390
  H     -484.663    -486.062     685.998

 6  7  8  9  10  11  12  13  14  15  16  26  30  31  32  33  35 0
 6-311+G(2d,p)
 ****
 37  38 0
 6-311+G(2d,p)
 ****
 1  2  3  4  5  17  18  19  20  21  22  23  24  25 0
 3-21G
 ****
 27  28  29  34  36  39  40  41  42  43  44  45  46 0
 3-21G
 ****


