%nproc=1
%NoSave
%Mem=1900MB
#P OB98/GEN NMR

erre ene a

0 1
  C      653.059    -137.587    -506.253
  O      651.776    -137.078    -506.545
  H      653.374    -138.237    -507.077
  H      653.046    -138.174    -505.330
  H      653.780    -136.771    -506.163
  P      651.013    -136.219    -505.425
  C      651.971    -133.995    -506.299
  O      651.885    -134.893    -505.200
  C      652.861    -132.798    -505.951
  O      652.325    -132.157    -504.758
  C      654.324    -133.172    -505.678
  O      655.161    -132.140    -506.196
  C      654.381    -133.192    -504.165
  O      655.699    -132.995    -503.692
  C      653.382    -132.097    -503.775
  N      652.883    -132.283    -502.419
  C      653.589    -131.631    -501.404
  O      654.571    -130.932    -501.674
  N      653.212    -131.840    -500.099
  C      652.250    -132.671    -499.833
  N      651.960    -132.855    -498.515
  C      651.496    -133.398    -500.869
  C      651.857    -133.155    -502.131
  O      650.644    -136.952    -504.180
  O      649.714    -135.679    -506.190
  H      656.167    -133.859    -503.664
  H      648.975    -136.303    -506.081
  H      650.705    -134.081    -500.590
  H      651.368    -133.653    -502.963
  H      653.851    -131.100    -503.848
  H      654.030    -134.165    -503.791
  H      654.604    -134.141    -506.109
  H      652.786    -132.065    -506.762
  H      652.518    -132.349    -497.835
  H      650.959    -133.649    -506.530
  H      651.262    -133.503    -498.178
  H      652.374    -134.518    -507.175
  P      655.864    -132.305    -507.634
  C      654.474    -130.366    -508.559
  O      654.887    -131.708    -508.770
  O      656.381    -133.676    -507.921
  O      657.065    -131.246    -507.593
  H      657.800    -131.578    -508.147
  H      653.833    -130.060    -509.359
  H      655.333    -129.729    -508.527
  H      653.945    -130.297    -507.632

 6  7  8  9  10  11  12  13  14  15  16  26  30  31  32  33  35 0
 6-311+G(2d,p)
 ****
 37  38 0
 6-311+G(2d,p)
 ****
 1  2  3  4  5  17  18  19  20  21  22  23  24  25 0
 3-21G
 ****
 27  28  29  34  36  39  40  41  42  43  44  45  46 0
 3-21G
 ****


