%nproc=1
%NoSave
%Mem=1900MB
#P OB98/GEN NMR

erre ene a

0 1
  C     -120.545     -82.016     -78.910
  O     -119.807     -82.117     -77.708
  P     -119.429     -83.543     -77.088
  C     -116.933     -83.003     -76.878
  O     -118.119     -83.359     -76.182
  C     -115.686     -83.300     -76.044
  O     -115.575     -82.322     -74.977
  C     -115.679     -84.697     -75.405
  O     -114.332     -85.181     -75.459
  C     -116.089     -84.419     -73.972
  O     -115.679     -85.446     -73.083
  C     -115.426     -83.055     -73.744
  N     -116.009     -82.334     -72.625
  C     -115.532     -82.651     -71.350
  O     -114.753     -83.594     -71.199
  N     -115.960     -81.899     -70.283
  C     -116.921     -81.042     -70.451
  N     -117.267     -80.271     -69.383
  C     -117.621     -80.862     -71.740
  C     -117.092     -81.498     -72.782
  O     -119.348     -84.661     -78.073
  O     -120.578     -83.818     -76.005
  H     -120.979     -84.691     -76.180
  H     -115.919     -85.189     -72.165
  H     -118.495     -80.231     -71.799
  H     -117.515     -81.409     -73.775
  H     -114.350     -83.175     -73.566
  H     -117.179     -84.331     -73.911
  H     -116.338     -85.402     -75.919
  H     -114.808     -83.179     -76.690
  H     -116.738     -80.395     -68.530
  H     -116.970     -81.932     -77.090
  H     -117.760     -79.386     -69.495
  H     -116.890     -83.530     -77.837
  P     -114.041     -86.533     -76.273
  C     -112.031     -85.354     -77.414
  O     -112.510     -86.503     -76.749
  O     -114.822     -86.253     -77.652
  O     -114.535     -87.804     -75.661
  H     -115.061     -87.106     -78.059
  H     -110.995     -85.536     -77.721
  H     -112.049     -84.490     -76.745
  H     -112.628     -85.148     -78.307
  H     -120.692     -80.984     -79.153
  H     -121.495     -82.492     -78.786
  H     -120.006     -82.495     -79.701

 3  4  5  6  7  8  9  10  11  12  13  24  27  28  29  30  32 0
 6-311+G(2d,p)
 ****
 34  35 0
 6-311+G(2d,p)
 ****
 1  2  14  15  16  17  18  19  20  21  22  23  25  26 0
 3-21G
 ****
 31  33  36  37  38  39  40  41  42  43  44  45  46 0
 3-21G
 ****


