%nproc=1
%NoSave
%Mem=1900MB
#P OB98/GEN NMR

erre ene a

0 1
  C     -533.886     356.698     263.544
  O     -535.095     356.938     262.871
  P     -536.384     357.584     263.562
  C     -537.272     359.350     261.843
  O     -537.401     358.056     262.409
  C     -538.512     359.713     261.006
  O     -538.555     358.844     259.845
  C     -539.813     359.472     261.798
  O     -540.789     360.492     261.635
  C     -540.204     358.053     261.395
  O     -541.574     357.762     261.620
  C     -539.734     358.012     259.940
  N     -541.521     353.794     257.732
  C     -542.129     355.025     257.866
  N     -543.432     355.090     257.520
  N     -541.510     356.086     258.322
  C     -540.243     355.852     258.730
  C     -539.536     354.669     258.645
  C     -540.209     353.519     258.103
  O     -539.753     352.374     258.077
  N     -538.283     354.782     259.216
  C     -538.259     356.013     259.676
  N     -539.431     356.686     259.425
  O     -536.127     358.527     264.691
  O     -537.126     356.283     264.164
  H     -541.749     356.863     261.264
  H     -537.554     356.561     264.999
  H     -542.074     352.988     257.445
  H     -537.427     356.461     260.205
  H     -540.495     358.423     259.272
  H     -539.618     357.363     262.013
  H     -543.961     354.257     257.302
  H     -539.607     359.494     262.882
  H     -543.962     355.900     257.842
  H     -538.418     360.738     260.650
  H     -536.383     359.311     261.203
  H     -537.093     360.095     262.614
  P     -541.948     360.939     262.633
  C     -542.841     362.365     260.691
  O     -543.176     361.515     261.771
  O     -541.390     362.250     263.370
  O     -542.333     359.906     263.641
  H     -541.655     362.229     264.309
  H     -543.733     362.895     260.369
  H     -542.464     361.767     259.860
  H     -542.078     363.101     260.990
  H     -533.181     356.262     262.867
  H     -534.059     356.027     264.360
  H     -533.497     357.622     263.918

 3  4  5  6  7  8  9  10  11  12  23  26  30  31 0
 6-311+G(2d,p)
 ****
 33  35  36  37  38 0
 6-311+G(2d,p)
 ****
 1  2  13  14  15  16  17  18  19  20  21  22  24  25 0
 3-21G
 ****
 27  28  29  32  34  39  40  41  42  43  44  45  46  47  48  49 0
 3-21G
 ****


