%nproc=1
%NoSave
%Mem=1900MB
#P OB98/GEN NMR

erre ene a

0 1
  C     -127.088    -244.674      25.903
  O     -126.413    -245.911      25.805
  H     -128.165    -244.857      25.884
  H     -126.826    -244.045      25.049
  H     -126.832    -244.163      26.835
  P     -124.842    -245.914      26.120
  C     -122.673    -245.989      24.704
  O     -124.078    -245.792      24.710
  C     -122.012    -245.065      23.680
  O     -122.488    -245.422      22.356
  C     -122.317    -243.576      23.900
  O     -121.141    -242.815      23.607
  C     -123.390    -243.280      22.867
  O     -123.426    -241.904      22.494
  C     -122.990    -244.222      21.737
  N     -125.202    -243.020      17.370
  C     -124.005    -242.591      17.914
  N     -123.294    -241.702      17.187
  N     -123.549    -242.999      19.068
  C     -124.347    -243.916      19.667
  C     -125.555    -244.415      19.234
  C     -126.063    -243.933      17.969
  O     -127.126    -244.258      17.447
  N     -126.075    -245.303      20.143
  C     -125.187    -245.339      21.118
  N     -124.118    -244.520      20.872
  O     -124.564    -247.426      26.569
  O     -124.396    -244.945      27.164
  H     -123.399    -241.374      23.320
  H     -124.282    -247.447      27.502
  H     -125.514    -242.664      16.484
  H     -125.270    -245.929      22.021
  H     -122.197    -243.803      21.104
  H     -124.375    -243.548      23.271
  H     -123.564    -241.382      16.270
  H     -122.651    -243.354      24.915
  H     -122.396    -241.401      17.547
  H     -120.931    -245.250      23.690
  H     -122.460    -247.031      24.444
  H     -122.273    -245.782      25.703
  P     -120.548    -241.907      24.789
  C     -120.582    -239.403      25.461
  O     -121.106    -240.411      24.606
  O     -118.997    -241.782      24.411
  O     -120.732    -242.494      26.151
  H     -118.461    -242.317      25.026
  H     -121.040    -238.464      25.229
  H     -119.524    -239.329      25.318
  H     -120.787    -239.657      26.480

 6  7  8  9  10  11  12  13  14  15  26  29  33  34 0
 6-311+G(2d,p)
 ****
 36  38  39  40  41 0
 6-311+G(2d,p)
 ****
 1  2  3  4  5  16  17  18  19  20  21  22  23  24  25 0
 3-21G
 ****
 27  28  30  31  32  35  37  42  43  44  45  46  47 0
 3-21G
 ****
 48  49 0
 3-21G
 ****


