%nproc=1
%NoSave
%Mem=1900MB
#P OB98/GEN NMR

erre ene a

0 1
  C      -35.625     839.933    -197.728
  O      -36.103     841.257    -197.863
  H      -34.867     839.754    -198.494
  H      -36.441     839.218    -197.866
  H      -35.168     839.799    -196.744
  P      -37.255     841.710    -196.846
  C      -35.756     843.377    -195.554
  O      -36.470     842.148    -195.516
  C      -36.472     844.441    -194.725
  O      -36.534     844.041    -193.349
  C      -35.811     845.811    -194.754
  O      -36.199     846.533    -195.912
  C      -36.385     846.434    -193.487
  O      -37.710     846.936    -193.758
  C      -36.466     845.236    -192.522
  N      -34.116     847.248    -188.429
  C      -35.102     847.720    -189.216
  N      -35.640     847.158    -190.323
  C      -35.065     845.971    -190.585
  C      -34.043     845.359    -189.871
  C      -33.564     846.045    -188.736
  N      -32.556     845.557    -187.935
  N      -33.704     844.149    -190.438
  C      -34.545     844.007    -191.438
  N      -35.365     845.101    -191.592
  O      -38.374     840.742    -196.659
  O      -37.683     843.122    -197.477
  H      -37.974     847.462    -192.981
  H      -36.895     843.613    -197.774
  H      -35.513     848.683    -188.928
  H      -34.616     843.129    -192.076
  H      -37.381     845.263    -191.921
  H      -35.794     847.276    -193.124
  H      -34.724     845.737    -194.653
  H      -37.511     844.504    -195.093
  H      -35.645     843.722    -196.590
  H      -32.152     846.197    -187.269
  H      -32.068     844.730    -188.242
  H      -34.755     843.195    -195.150
  P      -35.112     847.048    -196.972
  C      -36.637     846.537    -198.979
  O      -35.423     846.217    -198.307
  O      -33.707     846.998    -196.491
  O      -35.594     848.528    -197.341
  H      -34.870     849.016    -197.772
  H      -36.736     845.922    -199.849
  H      -36.623     847.567    -199.269
  H      -37.464     846.362    -198.323

 6  7  8  9  10  11  12  13  14  15  25  28  32  33  34  35 0
 6-311+G(2d,p)
 ****
 36  39  40 0
 6-311+G(2d,p)
 ****
 1  2  3  4  5  16  17  18  19  20  21  22  23  24 0
 3-21G
 ****
 26  27  29  30  31  37  38  41  42  43  44  45  46  47 0
 3-21G
 ****
 48 0
 3-21G
 ****


