%nproc=1
%NoSave
%Mem=1900MB
#P OB98/GEN NMR

erre ene a

0 1
  C     -277.955    -177.708    -321.238
  O     -277.750    -176.313    -321.096
  P     -276.945    -175.550    -322.258
  C     -274.843    -175.122    -320.782
  O     -275.385    -175.743    -321.934
  C     -273.518    -174.424    -321.116
  O     -272.600    -175.411    -321.658
  C     -273.630    -173.297    -322.154
  O     -272.635    -172.323    -321.820
  C     -273.251    -173.988    -323.455
  O     -272.818    -173.075    -324.456
  C     -272.178    -174.947    -322.959
  N     -270.156    -176.517    -327.331
  C     -270.214    -175.239    -326.783
  N     -269.590    -174.267    -327.477
  N     -270.819    -174.958    -325.661
  C     -271.387    -176.042    -325.074
  C     -271.432    -177.335    -325.533
  C     -270.725    -177.643    -326.755
  O     -270.575    -178.771    -327.231
  N     -272.179    -178.139    -324.710
  C     -272.510    -177.343    -323.707
  N     -272.014    -176.076    -323.865
  O     -277.218    -174.004    -321.926
  O     -277.332    -175.916    -323.663
  H     -273.552    -172.454    -324.630
  H     -277.983    -173.669    -322.431
  H     -269.651    -176.676    -328.184
  H     -273.098    -177.632    -322.845
  H     -271.197    -174.467    -322.851
  H     -274.124    -174.530    -323.844
  H     -269.074    -174.420    -328.334
  H     -274.624    -172.836    -322.190
  H     -269.588    -173.330    -327.079
  H     -273.082    -174.047    -320.185
  H     -274.651    -175.888    -320.023
  H     -275.563    -174.402    -320.370
  P     -273.002    -170.776    -322.030
  C     -271.515    -170.531    -324.138
  O     -272.811    -170.432    -323.579
  O     -271.763    -170.021    -321.330
  O     -274.294    -170.347    -321.415
  H     -272.075    -169.180    -320.948
  H     -271.607    -170.662    -325.222
  H     -270.962    -171.374    -323.721
  H     -270.967    -169.605    -323.940
  H     -278.501    -178.076    -320.395
  H     -277.008    -178.204    -321.294
  H     -278.510    -177.898    -322.133

 3  4  5  6  7  8  9  10  11  12  23  26  30  31 0
 6-311+G(2d,p)
 ****
 33  35  36  37  38 0
 6-311+G(2d,p)
 ****
 1  2  13  14  15  16  17  18  19  20  21  22  24  25 0
 3-21G
 ****
 27  28  29  32  34  39  40  41  42  43  44  45  46  47  48  49 0
 3-21G
 ****


