%nproc=1
%NoSave
%Mem=1900MB
#P OB98/GEN NMR

erre ene a

0 1
  C     -120.636     331.370     -43.219
  O     -121.475     330.689     -42.315
  H     -121.087     331.332     -44.212
  H     -119.660     330.875     -43.256
  H     -120.504     332.417     -42.934
  P     -121.310     330.968     -40.748
  C     -118.939     329.973     -40.531
  O     -120.305     329.871     -40.147
  C     -118.006     329.412     -39.457
  O     -118.032     330.266     -38.294
  C     -118.426     328.016     -38.987
  O     -117.906     326.951     -39.770
  C     -117.864     327.978     -37.570
  O     -116.507     327.507     -37.555
  C     -117.927     329.442     -37.126
  N     -119.434     330.865     -32.451
  C     -118.163     330.550     -32.893
  N     -117.186     330.584     -31.960
  N     -117.892     330.217     -34.128
  C     -118.985     330.132     -34.919
  C     -120.296     330.399     -34.587
  C     -120.576     330.839     -33.237
  O     -121.680     331.143     -32.803
  N     -121.142     330.160     -35.643
  C     -120.354     329.667     -36.580
  N     -119.028     329.706     -36.215
  O     -122.724     330.513     -40.140
  O     -121.009     332.388     -40.376
  H     -115.966     328.133     -38.077
  H     -122.931     331.056     -39.356
  H     -119.576     331.141     -31.494
  H     -120.684     329.313     -37.551
  H     -117.008     329.743     -36.606
  H     -118.444     327.296     -36.940
  H     -117.352     330.749     -30.981
  H     -119.516     327.938     -38.925
  H     -116.279     330.177     -32.198
  H     -116.977     329.415     -39.837
  H     -118.739     331.036     -40.682
  H     -118.773     329.469     -41.488
  P     -118.855     326.106     -40.740
  C     -120.020     324.739     -38.823
  O     -119.246     324.747     -40.002
  O     -117.856     325.631     -41.894
  O     -120.035     326.844     -41.286
  H     -117.936     326.207     -42.676
  H     -120.164     323.730     -38.498
  H     -120.971     325.190     -39.017
  H     -119.513     325.291     -38.060

 6  7  8  9  10  11  12  13  14  15  26  29  33  34 0
 6-311+G(2d,p)
 ****
 36  38  39  40  41 0
 6-311+G(2d,p)
 ****
 1  2  3  4  5  16  17  18  19  20  21  22  23  24  25 0
 3-21G
 ****
 27  28  30  31  32  35  37  42  43  44  45  46  47 0
 3-21G
 ****
 48  49 0
 3-21G
 ****


