%nproc=1
%NoSave
%Mem=1900MB
#P OB98/GEN NMR

erre ene a

0 1
  C     -640.291     -17.126    -230.945
  O     -641.279     -16.380    -231.628
  H     -639.312     -16.973    -231.412
  H     -640.242     -16.778    -229.910
  H     -640.545     -18.189    -230.948
  P     -641.515     -16.745    -233.175
  C     -641.124     -14.286    -233.925
  O     -642.023     -15.385    -233.869
  C     -641.800     -13.109    -234.617
  O     -642.103     -13.445    -235.990
  C     -643.128     -12.686    -233.988
  O     -642.948     -11.865    -232.849
  C     -643.737     -11.908    -235.142
  O     -643.136     -10.602    -235.228
  C     -643.344     -12.765    -236.353
  N     -647.704     -13.565    -238.907
  C     -646.965     -12.453    -238.708
  N     -645.817     -12.318    -238.008
  C     -645.442     -13.498    -237.497
  C     -646.086     -14.719    -237.601
  C     -647.274     -14.729    -238.360
  N     -648.036     -15.862    -238.550
  N     -645.414     -15.697    -236.896
  C     -644.358     -15.085    -236.400
  N     -644.332     -13.753    -236.723
  O     -642.836     -17.653    -233.151
  O     -640.374     -17.412    -233.865
  H     -643.215     -10.195    -234.345
  H     -642.891     -18.188    -233.965
  H     -647.351     -11.548    -239.173
  H     -643.586     -15.562    -235.804
  H     -643.128     -12.157    -237.244
  H     -644.815     -11.755    -235.030
  H     -643.757     -13.553    -233.768
  H     -641.087     -12.264    -234.629
  H     -640.230     -14.574    -234.485
  H     -648.953     -15.725    -238.956
  H     -647.806     -16.693    -238.019
  H     -640.827     -14.011    -232.903
  P     -642.861     -12.594    -231.424
  C     -643.711     -10.304    -230.529
  O     -642.844     -11.420    -230.334
  O     -641.360     -13.155    -231.389
  O     -643.876     -13.673    -231.210
  H     -641.285     -13.930    -230.811
  H     -643.586      -9.610    -229.724
  H     -644.726     -10.641    -230.554
  H     -643.471      -9.824    -231.455

 6  7  8  9  10  11  12  13  14  15  25  28  32  33  34  35 0
 6-311+G(2d,p)
 ****
 36  39  40 0
 6-311+G(2d,p)
 ****
 1  2  3  4  5  16  17  18  19  20  21  22  23  24 0
 3-21G
 ****
 26  27  29  30  31  37  38  41  42  43  44  45  46  47 0
 3-21G
 ****
 48 0
 3-21G
 ****


