%nproc=1
%NoSave
%Mem=1900MB
#P OB98/GEN NMR

erre ene a

0 1
  C      207.234       4.971    -462.123
  O      207.155       5.213    -463.513
  H      207.305       3.893    -461.958
  H      206.338       5.344    -461.622
  H      208.122       5.452    -461.707
  P      206.985       6.740    -463.973
  C      209.558       6.959    -463.700
  O      208.280       7.525    -463.448
  C      210.422       7.962    -464.457
  O      209.864       8.198    -465.772
  C      210.506       9.332    -463.800
  O      211.409       9.352    -462.711
  C      210.972      10.184    -464.969
  O      212.398      10.122    -465.129
  C      210.250       9.528    -466.168
  N      209.111      10.317    -466.622
  C      209.418      11.567    -467.152
  O      210.567      12.000    -467.239
  N      208.350      12.327    -467.546
  C      207.036      11.982    -467.428
  O      206.122      12.740    -467.733
  C      206.773      10.642    -466.874
  C      207.807       9.887    -466.494
  O      205.806       7.273    -463.029
  O      206.679       6.934    -465.420
  H      204.972       7.314    -463.531
  H      212.606      10.641    -465.930
  H      208.551      13.241    -467.922
  H      205.741      10.334    -466.772
  H      207.637       8.906    -466.063
  H      210.943       9.417    -467.013
  H      210.716      11.233    -464.828
  H      209.506       9.667    -463.496
  H      211.427       7.531    -464.583
  H      209.445       6.055    -464.308
  H      210.022       6.686    -462.746
  P      211.014      10.190    -461.403
  C      210.592       8.405    -459.521
  O      210.056       9.245    -460.527
  O      210.023      11.282    -462.023
  O      212.186      10.746    -460.670
  H      209.478      10.932    -462.749
  H      209.800       7.858    -459.053
  H      211.095       9.002    -458.789
  H      211.287       7.720    -459.961

 6  7  8  9  10  11  12  13  14  15  16  27  31  32  33  34  35 0
 6-311+G(2d,p)
 ****
 36  37 0
 6-311+G(2d,p)
 ****
 1  2  3  4  5  17  18  19  20  21  22  23  24  25 0
 3-21G
 ****
 26  28  29  30  38  39  40  41  42  43  44  45 0
 3-21G
 ****


