%nproc=1
%NoSave
%Mem=1900MB
#P OB98/GEN NMR

erre ene a

0 1
  C      116.887    -300.306    -129.443
  O      117.244    -299.362    -130.435
  H      115.950    -300.787    -129.743
  H      116.730    -299.801    -128.487
  H      117.658    -301.074    -129.342
  P      118.653    -298.612    -130.321
  C      119.542    -296.435    -129.248
  O      118.418    -297.285    -129.436
  C      119.442    -295.703    -127.904
  O      118.428    -294.663    -128.017
  C      119.051    -296.606    -126.733
  O      119.759    -296.189    -125.561
  C      117.568    -296.344    -126.560
  O      117.121    -296.600    -125.226
  C      117.455    -294.878    -126.976
  N      113.139    -292.530    -125.784
  C      114.337    -292.589    -125.104
  N      114.395    -291.944    -123.921
  N      115.387    -293.230    -125.542
  C      115.200    -293.814    -126.754
  C      114.061    -293.822    -127.526
  C      112.897    -293.134    -127.017
  O      111.800    -293.062    -127.572
  N      114.258    -294.546    -128.683
  C      115.508    -294.958    -128.606
  N      116.119    -294.555    -127.448
  O      119.354    -298.379    -131.624
  O      119.522    -299.541    -129.352
  H      117.773    -296.180    -124.624
  H      120.188    -300.042    -129.852
  H      112.357    -292.037    -125.396
  H      116.012    -295.562    -129.357
  H      117.675    -294.192    -126.146
  H      116.997    -296.994    -127.240
  H      113.626    -291.409    -123.530
  H      119.270    -297.660    -126.934
  H      115.271    -291.943    -123.408
  H      120.395    -295.197    -127.715
  H      119.567    -295.705    -130.064
  H      120.458    -297.038    -129.279
  P      120.812    -297.190    -124.882
  C      120.807    -299.181    -123.256
  O      120.029    -298.175    -123.887
  O      122.027    -296.545    -124.307
  O      121.205    -298.164    -126.102
  H      122.145    -298.415    -126.011
  H      120.180    -299.771    -122.621
  H      121.576    -298.722    -122.671
  H      121.251    -299.808    -124.001

 6  7  8  9  10  11  12  13  14  15  26  29  33  34 0
 6-311+G(2d,p)
 ****
 36  38  39  40  41 0
 6-311+G(2d,p)
 ****
 1  2  3  4  5  16  17  18  19  20  21  22  23  24  25 0
 3-21G
 ****
 27  28  30  31  32  35  37  42  43  44  45  46  47 0
 3-21G
 ****
 48  49 0
 3-21G
 ****


