%nproc=1
%NoSave
%Mem=1900MB
#P OB98/GEN NMR

erre ene a

0 1
  C      285.605     276.504    -688.610
  O      285.787     275.118    -688.306
  P      284.785     274.461    -687.252
  C      285.030     272.282    -688.640
  O      285.029     272.872    -687.337
  C      286.029     271.138    -688.706
  O      285.726     270.175    -687.688
  C      286.025     270.365    -690.023
  O      286.778     271.034    -691.025
  C      286.717     269.071    -689.600
  O      288.141     269.249    -689.608
  C      286.188     268.873    -688.155
  N      284.735     264.351    -686.405
  C      285.953     264.984    -686.291
  N      286.912     264.350    -685.582
  N      286.206     266.152    -686.817
  C      285.155     266.694    -687.460
  C      283.889     266.158    -687.660
  C      283.632     264.841    -687.109
  O      282.598     264.200    -687.221
  N      283.067     267.004    -688.352
  C      283.808     268.074    -688.550
  N      285.098     267.920    -688.059
  O      283.336     274.657    -687.929
  O      284.826     275.051    -685.872
  H      288.347     269.930    -688.952
  H      282.650     274.667    -687.240
  H      284.590     263.458    -685.962
  H      283.473     268.981    -689.046
  H      286.998     268.558    -687.485
  H      286.493     268.229    -690.280
  H      286.729     263.505    -685.042
  H      285.008     270.148    -690.350
  H      287.797     264.819    -685.454
  H      287.032     271.547    -688.499
  H      285.305     273.047    -689.387
  H      284.007     271.931    -688.869
  P      286.203     270.927    -692.529
  C      288.156     272.539    -693.123
  O      287.424     271.379    -693.472
  O      285.159     272.129    -692.610
  O      285.565     269.611    -692.860
  H      284.481     271.949    -693.290
  H      288.260     272.637    -692.038
  H      287.649     273.422    -693.516
  H      289.148     272.479    -693.569
  H      286.339     276.812    -689.325
  H      285.713     277.082    -687.716
  H      284.627     276.655    -689.016

 3  4  5  6  7  8  9  10  11  12  23  26  30  31  33  0
 6-311+G(2d,p)
 ****
 35  36  37  38 0
 6-311+G(2d,p)
 ****
 1  2  13  14  15  16  17  18  19  20  21  22  24  25  27  28  29 0
 3-21G
 ****
 32  34  39  40  41  42  43  44  45  46  47  48  49 0
 3-21G
 ****


