%nproc=1
%NoSave
%Mem=1900MB
#P OB98/GEN NMR

erre ene a

0 1
  C       59.430    -257.820    -893.950
  O       60.447    -258.101    -894.890
  H       58.684    -257.148    -894.380
  H       58.943    -258.756    -893.670
  H       59.869    -257.363    -893.050
  P       61.214    -256.837    -895.500
  C       63.134    -257.090    -893.780
  O       62.772    -257.030    -895.150
  C       64.423    -257.891    -893.610
  O       64.218    -259.253    -894.050
  C       65.606    -257.381    -894.420
  O       66.219    -256.257    -893.810
  C       66.512    -258.598    -894.390
  O       67.225    -258.646    -893.140
  C       65.511    -259.764    -894.470
  N       65.170    -264.096    -897.210
  C       65.295    -263.871    -895.880
  N       65.393    -262.704    -895.230
  C       65.323    -261.665    -896.090
  C       65.196    -261.743    -897.460
  C       65.124    -263.019    -898.030
  N       65.011    -263.238    -899.390
  N       65.153    -260.475    -898.010
  C       65.263    -259.656    -896.990
  N       65.375    -260.330    -895.800
  O       60.766    -255.624    -894.560
  O       60.911    -256.543    -896.940
  H       67.794    -257.854    -893.120
  H       60.678    -254.814    -895.100
  H       65.312    -264.764    -895.260
  H       65.246    -258.569    -897.050
  H       65.780    -260.567    -893.780
  H       67.254    -258.598    -895.190
  H       65.309    -257.167    -895.460
  H       64.661    -257.910    -892.540
  H       62.331    -257.579    -893.210
  H       64.766    -264.149    -899.710
  H       64.966    -262.422    -900.000
  H       63.266    -256.070    -893.400
  P       67.179    -255.343    -894.730
  C       65.208    -254.249    -896.030
  O       66.301    -254.060    -895.140
  O       67.258    -256.172    -896.100
  O       68.527    -255.076    -894.160
  H       68.090    -255.962    -896.570
  H       64.725    -253.311    -896.206
  H       64.509    -254.934    -895.597
  H       65.567    -254.645    -896.957

 6  7  8  9  10  11  12  13  14  15  25  28  32  33  34  35 0
 6-311+G(2d,p)
 ****
 36  39  40 0
 6-311+G(2d,p)
 ****
 1  2  3  4  5  16  17  18  19  20  21  22  23  24 0
 3-21G
 ****
 26  27  29  30  31  37  38  41  42  43  44  45  46  47  48 0
 3-21G
 ****


