%nproc=1
%NoSave
%Mem=1900MB
#P OB98/GEN NMR

erre ene a

0 1
  C      -64.004      23.171      33.698
  O      -64.942      22.737      32.732
  H      -64.520      23.808      34.422
  H      -63.208      23.752      33.225
  H      -63.578      22.315      34.227
  P      -64.427      21.817      31.526
  C      -64.611      19.776      33.101
  O      -63.786      20.511      32.204
  C      -65.063      18.469      32.455
  O      -63.924      17.680      32.062
  C      -65.910      17.578      33.364
  O      -67.259      18.015      33.376
  C      -65.737      16.235      32.676
  O      -66.566      16.183      31.498
  C      -64.251      16.277      32.269
  N      -62.265      12.035      34.230
  C      -63.291      12.195      33.317
  N      -63.893      11.063      32.888
  N      -63.698      13.355      32.873
  C      -63.052      14.401      33.441
  C      -62.034      14.372      34.367
  C      -61.548      13.078      34.799
  O      -60.624      12.894      35.589
  N      -61.694      15.637      34.781
  C      -62.468      16.429      34.066
  N      -63.320      15.728      33.241
  O      -63.531      22.483      30.526
  O      -65.768      21.258      30.853
  H      -66.394      15.326      31.063
  H      -66.064      21.835      30.125
  H      -62.001      11.117      34.541
  H      -62.454      17.514      34.100
  H      -64.069      15.754      31.324
  H      -66.023      15.392      33.309
  H      -63.727      10.157      33.303
  H      -65.487      17.519      34.373
  H      -64.685      11.163      32.264
  H      -65.611      18.722      31.535
  H      -65.477      20.404      33.341
  H      -64.070      19.559      34.027
  P      -68.156      17.935      34.708
  C      -67.439      20.352      35.295
  O      -67.509      19.000      35.718
  O      -68.322      16.565      35.269
  O      -69.526      18.651      34.306
  H      -70.166      18.036      33.864
  H      -66.988      20.943      36.064
  H      -68.426      20.716      35.098
  H      -66.850      20.417      34.404

 6  7  8  9  10  11  12  13  14  15  26  29  33  34 0
 6-311+G(2d,p)
 ****
 36  38  39  40  41 0
 6-311+G(2d,p)
 ****
 1  2  3  4  5  16  17  18  19  20  21  22  23  24  25 0
 3-21G
 ****
 27  28  30  31  32  35  37  42  43  44  45  46  47 0
 3-21G
 ****
 48  49 0
 3-21G
 ****


