%nproc=1
%NoSave
%Mem=1900MB
#P OB98/GEN NMR

erre ene a

0 1
  C      305.156    -879.624      82.483
  O      304.275    -880.662      82.881
  H      306.167    -879.886      82.803
  H      304.875    -878.677      82.962
  H      305.155    -879.512      81.394
  P      302.715    -880.514      82.533
  C      302.050    -883.014      82.685
  O      302.032    -881.737      83.314
  C      301.804    -884.111      83.719
  O      302.811    -884.097      84.758
  C      300.475    -884.013      84.469
  O      299.345    -884.370      83.690
  C      300.735    -884.999      85.604
  O      300.623    -886.348      85.106
  C      302.201    -884.643      85.957
  N      302.294    -883.697      87.064
  C      302.410    -884.239      88.352
  O      302.396    -885.452      88.524
  N      302.474    -883.377      89.423
  C      302.408    -882.092      89.236
  N      302.475    -881.285      90.346
  C      302.280    -881.485      87.888
  C      302.234    -882.321      86.868
  O      302.375    -880.399      81.082
  O      302.227    -879.260      83.407
  H      299.672    -886.506      84.944
  H      301.272    -879.121      83.212
  H      302.210    -880.411      87.795
  H      302.132    -881.955      85.853
  H      302.762    -885.560      86.225
  H      300.030    -884.894      86.424
  H      300.354    -883.007      84.898
  H      301.893    -885.078      83.192
  H      302.575    -881.737      91.235
  H      303.019    -883.144      82.194
  H      302.365    -880.283      90.292
  H      301.257    -883.069      81.931
  P      297.908    -884.338      84.419
  C      296.859    -883.262      82.263
  O      296.810    -884.298      83.263
  O      297.863    -882.855      85.054
  O      297.702    -885.399      85.448
  H      298.119    -882.890      86.006
  H      296.051    -883.393      81.574
  H      297.789    -883.318      81.737
  H      296.774    -882.306      82.736

 6  7  8  9  10  11  12  13  14  15  16  26  30  31  32  33  35 0
 6-311+G(2d,p)
 ****
 37  38 0
 6-311+G(2d,p)
 ****
 1  2  3  4  5  17  18  19  20  21  22  23  24  25 0
 3-21G
 ****
 27  28  29  34  36  39  40  41  42  43  44  45  46 0
 3-21G
 ****


