%nproc=1
%NoSave
%Mem=1900MB
#P OB98/GEN NMR

erre ene a

0 1
  C      300.862     -14.853    -335.448
  O      301.038     -13.436    -335.337
  P      299.958     -12.459    -336.007
  C      299.985     -10.634    -334.193
  O      300.265     -10.952    -335.547
  C      300.653      -9.309    -333.791
  O      302.074      -9.508    -333.542
  C      300.535      -8.238    -334.891
  O      300.436      -6.930    -334.308
  C      301.876      -8.328    -335.600
  O      302.172      -7.134    -336.323
  C      302.802      -8.615    -334.411
  N      307.647      -7.665    -335.798
  C      306.658      -6.847    -335.381
  N      305.397      -7.175    -335.010
  C      305.206      -8.501    -335.083
  C      306.128      -9.461    -335.486
  C      307.401      -8.998    -335.862
  N      308.401      -9.828    -336.316
  N      305.577     -10.725    -335.434
  C      304.320     -10.524    -335.065
  N      304.066      -9.204    -334.805
  O      298.533     -12.888    -335.875
  O      300.414     -12.449    -337.550
  H      301.395      -6.929    -336.871
  H      299.612     -12.496    -338.119
  H      306.903      -5.791    -335.350
  H      303.564     -11.297    -334.973
  H      303.023      -7.701    -333.846
  H      301.869      -9.171    -336.304
  H      299.694      -8.383    -335.580
  H      300.206      -8.952    -332.853
  H      300.347     -11.440    -333.541
  H      309.238      -9.398    -336.675
  H      308.188     -10.796    -336.514
  H      298.900     -10.589    -334.049
  P      299.001      -6.205    -334.443
  C      299.164      -4.710    -332.297
  O      299.159      -4.792    -333.708
  O      297.859      -7.064    -333.993
  O      298.952      -5.842    -336.004
  H      299.748      -5.386    -336.337
  H      299.412      -3.690    -332.001
  H      299.910      -5.382    -331.875
  H      298.172      -4.964    -331.904
  H      301.666     -15.352    -334.949
  H      300.855     -15.132    -336.481
  H      299.933     -15.133    -334.997

 3  4  5  6  7  8  9  10  11  12  22  25  29  30  31  32 0
 6-311+G(2d,p)
 ****
 33  36  37 0
 6-311+G(2d,p)
 ****
 1  2  13  14  15  16  17  18  19  20  21  23  24  26 0
 3-21G
 ****
 27  28  34  35  38  39  40  41  42  43  44  45  46  47  48 0
 3-21G
 ****


