%nproc=1
%NoSave
%Mem=1900MB
#P OB98/GEN NMR

erre ene a

0 1
  C       46.139     199.091     397.311
  O       47.281     199.057     396.441
  P       48.784     199.309     396.947
  C       49.090     201.542     395.664
  O       49.537     200.202     395.843
  C       49.931     202.259     394.605
  O       51.284     202.450     395.079
  C       50.101     201.505     393.290
  O       48.923     201.515     392.506
  C       51.276     202.257     392.667
  O       50.837     203.437     391.974
  C       52.105     202.653     393.906
  N       53.360     201.923     394.010
  C       54.415     202.372     393.214
  O       54.244     203.289     392.414
  N       55.637     201.755     393.341
  C       55.761     200.715     394.104
  N       57.000     200.160     394.202
  C       54.634     200.127     394.853
  C       53.475     200.777     394.764
  O       49.517     198.062     397.314
  O       48.648     200.294     398.202
  H       49.412     200.169     398.798
  H       51.642     203.890     391.654
  H       54.772     199.234     395.450
  H       52.600     200.418     395.295
  H       52.320     203.730     393.889
  H       51.820     201.641     391.948
  H       50.401     200.473     393.503
  H       49.480     203.246     394.424
  H       57.750     200.598     393.683
  H       49.197     202.070     396.618
  H       57.209     199.367     394.788
  H       48.032     201.536     395.388
  P       48.012     200.193     392.545
  C       49.435     199.258     390.589
  O       48.145     199.469     391.121
  O       46.517     200.767     392.544
  O       48.257     199.310     393.727
  H       45.958     200.228     393.135
  H       49.403     198.383     389.931
  H       50.176     199.088     391.373
  H       49.726     200.131     389.996
  H       45.253     198.894     396.744
  H       46.065     200.057     397.765
  H       46.248     198.347     398.072

 3  4  5  6  7  8  9  10  11  12  13  24  27  28  29  30  32 0
 6-311+G(2d,p)
 ****
 34  35 0
 6-311+G(2d,p)
 ****
 1  2  14  15  16  17  18  19  20  21  22  23  25  26 0
 3-21G
 ****
 31  33  36  37  38  39  40  41  42  43  44  45  46 0
 3-21G
 ****


