%nproc=1
%NoSave
%Mem=1900MB
#P OB98/GEN NMR

erre ene a

0 1
  C      -46.979     224.235     186.276
  O      -45.749     224.246     185.579
  H      -46.947     225.001     187.055
  H      -47.144     223.264     186.749
  H      -47.806     224.462     185.597
  P      -45.547     223.201     184.382
  C      -45.819     220.633     184.350
  O      -45.365     221.766     185.077
  C      -45.570     219.362     185.154
  O      -46.037     219.522     186.507
  C      -46.275     218.127     184.595
  O      -45.536     217.581     183.515
  C      -46.286     217.237     185.825
  O      -44.980     216.665     186.023
  C      -46.598     218.252     186.939
  N      -50.660     216.416     189.352
  C      -49.378     215.909     189.261
  N      -49.162     214.719     189.861
  N      -48.405     216.502     188.618
  C      -48.788     217.646     188.008
  C      -50.031     218.242     188.014
  C      -51.083     217.604     188.774
  O      -52.228     218.030     188.896
  N      -50.053     219.364     187.226
  C      -48.818     219.468     186.775
  N      -48.014     218.442     187.210
  O      -44.474     223.529     183.388
  O      -46.990     223.103     183.703
  H      -44.768     216.167     185.210
  H      -47.077     223.734     182.965
  H      -51.369     215.902     189.846
  H      -48.454     220.265     186.139
  H      -46.121     217.987     187.889
  H      -46.994     216.411     185.752
  H      -49.923     214.100     190.112
  H      -47.311     218.345     184.313
  H      -48.244     214.305     189.763
  H      -44.486     219.205     185.205
  H      -45.268     220.604     183.406
  H      -46.889     220.726     184.129
  P      -46.270     216.783     182.329
  C      -47.626     214.584     182.316
  O      -46.604     215.341     182.947
  O      -45.522     216.749     181.041
  O      -47.711     217.457     182.223
  H      -47.741     218.236     181.612
  H      -47.745     213.651     182.826
  H      -47.357     214.402     181.296
  H      -48.546     215.129     182.350

 6  7  8  9  10  11  12  13  14  15  26  29  33  34 0
 6-311+G(2d,p)
 ****
 36  38  39  40  41 0
 6-311+G(2d,p)
 ****
 1  2  3  4  5  16  17  18  19  20  21  22  23  24  25 0
 3-21G
 ****
 27  28  30  31  32  35  37  42  43  44  45  46  47 0
 3-21G
 ****
 48  49 0
 3-21G
 ****


