%nproc=1
%NoSave
%Mem=1900MB
#P OB98/GEN NMR

erre ene a

0 1
  C     -237.572      -1.202     117.734
  O     -236.505      -1.854     118.392
  H     -237.823      -1.724     116.806
  H     -238.446      -1.209     118.391
  H     -237.301      -0.165     117.517
  P     -235.156      -2.042     117.544
  C     -235.935      -4.452     116.998
  O     -235.440      -3.222     116.493
  C     -237.065      -4.968     116.115
  O     -238.097      -3.969     115.992
  C     -236.655      -5.299     114.684
  O     -236.005      -6.560     114.598
  C     -238.015      -5.322     114.001
  O     -238.660      -6.585     114.248
  C     -238.768      -4.197     114.725
  N     -241.742      -0.345     113.084
  C     -242.019      -1.451     113.814
  N     -241.183      -2.434     114.202
  C     -239.932      -2.194     113.776
  C     -239.500      -1.113     113.026
  C     -240.468      -0.160     112.669
  N     -240.179       0.953     111.911
  N     -238.146      -1.196     112.787
  C     -237.763      -2.308     113.381
  N     -238.810      -2.950     113.988
  O     -234.147      -2.718     118.592
  O     -234.585      -0.791     116.966
  H     -238.759      -6.664     115.215
  H     -233.247      -2.381     118.426
  H     -243.053      -1.555     114.133
  H     -236.746      -2.680     113.403
  H     -239.798      -4.489     114.959
  H     -237.953      -5.193     112.918
  H     -236.044      -4.501     114.251
  H     -237.504      -5.846     116.606
  H     -236.314      -4.303     118.014
  H     -240.860       1.691     111.857
  H     -239.219       1.088     111.610
  H     -235.114      -5.177     117.029
  P     -234.400      -6.559     114.501
  C     -234.657      -7.406     112.062
  O     -234.064      -6.451     112.936
  O     -234.016      -8.071     114.858
  O     -233.712      -5.584     115.394
  H     -233.108      -8.107     115.215
  H     -234.345      -7.212     111.057
  H     -235.723      -7.334     112.125
  H     -234.349      -8.390     112.347

 6  7  8  9  10  11  12  13  14  15  25  28  32  33  34  35 0
 6-311+G(2d,p)
 ****
 36  39  40 0
 6-311+G(2d,p)
 ****
 1  2  3  4  5  16  17  18  19  20  21  22  23  24 0
 3-21G
 ****
 26  27  29  30  31  37  38  41  42  43  44  45  46  47  48 0
 3-21G
 ****


