%nproc=1
%NoSave
%Mem=1900MB
#P OB98/GEN NMR

erre ene a

0 1
  C     -293.114     489.275     133.059
  O     -292.316     489.900     132.073
  H     -294.168     489.426     132.806
  H     -292.927     489.707     134.046
  H     -292.911     488.201     133.080
  P     -290.745     490.060     132.364
  C     -290.268     487.645     131.603
  O     -290.215     488.576     132.682
  C     -289.170     486.585     131.737
  O     -289.423     485.477     130.843
  C     -287.780     487.077     131.368
  O     -287.249     488.048     132.237
  C     -287.032     485.769     131.156
  O     -286.570     485.204     132.387
  C     -288.141     484.874     130.548
  N     -287.962     484.671     129.112
  C     -287.236     483.543     128.744
  O     -286.745     482.756     129.554
  N     -287.067     483.363     127.400
  C     -287.495     484.203     126.415
  O     -287.291     483.989     125.224
  C     -288.222     485.400     126.868
  C     -288.418     485.576     128.177
  O     -290.380     491.071     133.410
  O     -290.120     490.371     130.925
  H     -285.758     485.688     132.631
  H     -289.201     490.729     131.002
  H     -286.561     482.540     127.108
  H     -288.569     486.093     126.116
  H     -288.958     486.455     128.536
  H     -288.142     483.889     131.030
  H     -286.163     485.895     130.511
  H     -287.841     487.561     130.384
  H     -289.197     486.194     132.761
  H     -290.118     488.203     130.673
  H     -291.253     487.166     131.580
  P     -285.747     488.580     132.161
  C     -286.254     490.057     130.063
  O     -285.449     489.044     130.655
  O     -284.710     487.770     132.864
  O     -285.864     489.997     132.929
  H     -285.020     490.142     133.401
  H     -285.918     490.241     129.064
  H     -286.175     490.957     130.637
  H     -287.274     489.736     130.043

 6  7  8  9  10  11  12  13  14  15  16  26  31  32  33  34  35 0
 6-311+G(2d,p)
 ****
 36  37 0
 6-311+G(2d,p)
 ****
 1  2  3  4  5  17  18  19  20  21  22  23  24  25 0
 3-21G
 ****
 27  28  29  30  38  39  40  41  42  43  44  45 0
 3-21G
 ****


