%nproc=1
%NoSave
%Mem=1900MB
#P OB98/GEN NMR

erre ene a

0 1
  C      245.460     -91.301     -97.504
  O      246.383     -91.435     -96.443
  H      245.081     -90.276     -97.510
  H      244.616     -91.986     -97.371
  H      245.950     -91.499     -98.463
  P      247.029     -92.875     -96.166
  C      246.329     -94.902     -94.715
  O      245.903     -93.741     -95.421
  C      245.133     -95.605     -94.069
  O      244.217     -96.070     -95.080
  C      245.507     -96.840     -93.250
  O      246.082     -96.462     -92.011
  C      244.157     -97.531     -93.159
  O      243.326     -96.911     -92.165
  C      243.592     -97.277     -94.578
  N      243.804     -98.392     -95.497
  C      243.160     -99.592     -95.166
  O      242.478     -99.667     -94.142
  N      243.325    -100.672     -95.997
  C      244.029    -100.558     -97.082
  N      244.151    -101.670     -97.868
  C      244.693     -99.303     -97.486
  C      244.548     -98.274     -96.651
  O      248.363     -92.884     -95.488
  O      247.104     -93.551     -97.619
  H      243.699     -97.172     -91.301
  H      247.977     -93.400     -98.023
  H      245.261     -99.247     -98.403
  H      245.002     -97.312     -96.870
  H      242.511     -97.072     -94.529
  H      244.248     -98.584     -92.889
  H      246.190     -97.484     -93.819
  H      244.601     -94.870     -93.452
  H      243.660    -102.501     -97.557
  H      247.032     -94.573     -93.945
  H      244.531    -101.651     -98.801
  H      246.852     -95.593     -95.388
  P      246.973     -97.481     -91.156
  C      246.496     -99.526     -89.666
  O      245.933     -98.498     -90.466
  O      247.946     -96.845     -90.220
  O      247.668     -98.404     -92.264
  H      248.422     -97.923     -92.691
  H      245.713    -100.134     -89.264
  H      247.055     -99.089     -88.865
  H      247.144    -100.130     -90.266

 6  7  8  9  10  11  12  13  14  15  16  26  30  31  32  33  35 0
 6-311+G(2d,p)
 ****
 37  38 0
 6-311+G(2d,p)
 ****
 1  2  3  4  5  17  18  19  20  21  22  23  24  25 0
 3-21G
 ****
 27  28  29  34  36  39  40  41  42  43  44  45  46 0
 3-21G
 ****


