%nproc=1
%NoSave
%Mem=1900MB
#P OB98/GEN NMR

erre ene a

0 1
  C      -74.239     -65.954     -37.887
  O      -74.352     -65.486     -36.560
  P      -73.096     -65.047     -35.675
  C      -74.615     -64.663     -33.602
  O      -73.458     -65.302     -34.129
  C      -75.139     -65.333     -32.323
  O      -75.612     -66.659     -32.635
  C      -74.001     -65.506     -31.314
  O      -73.631     -64.436     -30.466
  C      -74.302     -66.817     -30.598
  O      -74.945     -66.619     -29.338
  C      -75.235     -67.544     -31.568
  N      -74.615     -72.552     -31.077
  C      -75.512     -71.720     -30.436
  N      -76.190     -72.266     -29.403
  N      -75.701     -70.468     -30.765
  C      -74.880     -70.040     -31.753
  C      -73.964     -70.773     -32.471
  C      -73.795     -72.165     -32.126
  O      -72.952     -72.913     -32.614
  N      -73.259     -69.990     -33.349
  C      -73.717     -68.774     -33.135
  N      -74.673     -68.749     -32.147
  O      -72.424     -63.766     -36.051
  O      -72.059     -66.244     -35.982
  H      -74.906     -67.459     -28.846
  H      -71.160     -65.862     -35.975
  H      -74.456     -73.488     -30.728
  H      -73.369     -67.880     -33.638
  H      -76.165     -67.838     -31.064
  H      -73.376     -67.365     -30.389
  H      -75.965     -73.178     -29.031
  H      -73.092     -65.707     -31.896
  H      -76.725     -71.645     -28.806
  H      -76.004     -64.797     -31.924
  H      -75.380     -64.672     -34.384
  H      -74.388     -63.615     -33.388
  P      -72.363     -64.389     -29.494
  C      -73.020     -61.993     -28.886
  O      -72.613     -63.256     -28.391
  O      -71.198     -63.757     -30.394
  O      -71.937     -65.713     -28.949
  H      -70.328     -64.005     -30.028
  H      -72.866     -61.240     -28.109
  H      -74.084     -62.026     -29.143
  H      -72.441     -61.714     -29.771
  H      -75.212     -66.184     -38.268
  H      -73.632     -66.835     -37.904
  H      -73.788     -65.198     -38.495

 3  4  5  6  7  8  9  10  11  12  23  26  30  31 0
 6-311+G(2d,p)
 ****
 33  35  36  37  38 0
 6-311+G(2d,p)
 ****
 1  2  13  14  15  16  17  18  19  20  21  22  24  25 0
 3-21G
 ****
 27  28  29  32  34  39  40  41  42  43  44  45  46  47  48  49 0
 3-21G
 ****


