%nproc=1
%NoSave
%Mem=1900MB
#P OB98/GEN NMR

erre ene a

0 1
  C     -341.411     402.822    -206.443
  O     -341.931     402.365    -207.674
  H     -341.962     402.346    -205.627
  H     -341.547     403.904    -206.371
  H     -340.350     402.572    -206.347
  P     -341.041     402.611    -208.984
  C     -339.004     401.423    -210.070
  O     -340.044     401.357    -209.105
  C     -338.246     400.097    -210.129
  O     -337.737     399.795    -208.794
  C     -339.102     398.904    -210.584
  O     -338.290     398.030    -211.381
  C     -339.414     398.198    -209.277
  O     -339.731     396.821    -209.466
  C     -338.120     398.436    -208.509
  N     -337.836     394.897    -204.959
  C     -337.411     394.888    -206.273
  N     -336.879     393.736    -206.739
  N     -337.502     395.921    -207.069
  C     -338.034     397.013    -206.471
  C     -338.497     397.151    -205.186
  C     -338.409     395.994    -204.318
  O     -338.786     395.933    -203.154
  N     -339.023     398.403    -204.983
  C     -338.895     399.012    -206.151
  N     -338.303     398.207    -207.085
  O     -340.083     403.814    -208.535
  O     -341.805     402.941    -210.224
  H     -340.427     396.759    -210.151
  H     -340.465     404.665    -208.819
  H     -337.760     394.066    -204.395
  H     -339.230     400.014    -206.373
  H     -337.309     397.774    -208.835
  H     -340.264     398.683    -208.783
  H     -336.749     392.909    -206.178
  H     -339.999     399.187    -211.142
  H     -336.526     393.727    -207.689
  H     -337.373     400.221    -210.783
  H     -338.305     402.221    -209.794
  H     -339.435     401.658    -211.048
  P     -337.965     398.468    -212.887
  C     -335.858     399.372    -214.123
  O     -336.576     399.269    -212.902
  O     -339.051     399.613    -213.173
  O     -338.071     397.358    -213.879
  H     -339.325     399.583    -214.106
  H     -334.961     399.933    -213.963
  H     -336.464     399.868    -214.852
  H     -335.608     398.392    -214.474

 6  7  8  9  10  11  12  13  14  15  26  29  33  34 0
 6-311+G(2d,p)
 ****
 36  38  39  40  41 0
 6-311+G(2d,p)
 ****
 1  2  3  4  5  16  17  18  19  20  21  22  23  24  25 0
 3-21G
 ****
 27  28  30  31  32  35  37  42  43  44  45  46  47 0
 3-21G
 ****
 48  49 0
 3-21G
 ****


