%nproc=1
%NoSave
%Mem=1900MB
#P OB98/GEN NMR

erre ene a

0 1
  C     1175.814     188.239    -211.370
  O     1174.446     188.202    -211.803
  P     1173.403     187.096    -211.283
  C     1173.968     185.255    -213.005
  O     1173.963     185.623    -211.626
  C     1174.529     183.846    -213.212
  O     1173.822     182.892    -212.401
  C     1174.435     183.299    -214.629
  O     1175.415     183.893    -215.462
  C     1174.614     181.818    -214.382
  O     1176.009     181.471    -214.264
  C     1173.876     181.603    -213.042
  N     1172.551     181.052    -213.221
  C     1172.481     179.682    -213.531
  O     1173.518     179.035    -213.704
  N     1171.247     179.087    -213.654
  C     1170.177     179.832    -213.553
  N     1168.991     179.178    -213.682
  C     1170.206     181.276    -213.309
  C     1171.414     181.819    -213.157
  O     1172.001     187.342    -211.742
  O     1173.478     187.153    -209.685
  H     1176.034     180.486    -214.370
  H     1172.615     186.926    -209.315
  H     1169.290     181.837    -213.275
  H     1171.517     182.881    -212.964
  H     1174.461     180.960    -212.388
  H     1174.200     181.217    -215.213
  H     1173.426     183.509    -215.015
  H     1175.590     183.859    -212.868
  H     1169.007     178.177    -213.853
  H     1174.593     185.966    -213.553
  H     1168.092     179.645    -213.623
  H     1172.960     185.323    -213.391
  P     1174.997     185.091    -216.467
  C     1174.486     183.667    -218.531
  O     1173.969     184.501    -217.505
  O     1176.138     185.851    -217.047
  O     1174.095     186.045    -215.543
  H     1174.207     186.961    -215.843
  H     1173.677     183.025    -218.906
  H     1175.289     183.034    -218.130
  H     1174.862     184.291    -219.340
  H     1176.316     189.056    -211.845
  H     1176.297     187.321    -211.634
  H     1175.849     188.367    -210.308

 3  4  5  6  7  8  9  10  11  12  13  23  27  28  29  30  32 0
 6-311+G(2d,p)
 ****
 34  35 0
 6-311+G(2d,p)
 ****
 1  2  14  15  16  17  18  19  20  21  22  24  25  26 0
 3-21G
 ****
 31  33  36  37  38  39  40  41  42  43  44  45  46 0
 3-21G
 ****


