%nproc=1
%NoSave
%Mem=1900MB
#P OB98/GEN NMR

erre ene a

0 1
  C      164.440     -22.140      -1.540
  O      163.075     -22.492      -1.634
  H      164.604     -21.228      -2.124
  H      165.065     -22.935      -1.954
  H      164.723     -21.946      -0.502
  P      162.528     -23.701      -0.733
  C      162.928     -26.244      -0.586
  O      163.175     -25.048      -1.316
  C      162.807     -27.425      -1.547
  O      161.535     -27.377      -2.231
  C      163.858     -27.430      -2.650
  O      165.121     -27.846      -2.162
  C      163.213     -28.367      -3.656
  O      163.441     -29.738      -3.306
  C      161.716     -28.010      -3.517
  N      161.256     -27.144      -4.602
  C      160.661     -27.782      -5.687
  O      160.506     -29.000      -5.758
  N      160.303     -26.970      -6.730
  C      160.602     -25.642      -6.846
  O      160.485     -25.014      -7.895
  C      161.173     -25.010      -5.647
  C      161.481     -25.781      -4.600
  O      161.050     -23.741      -0.533
  O      163.299     -23.511       0.659
  H      162.693     -23.103       1.307
  H      163.018     -30.269      -4.012
  H      159.908     -27.432      -7.539
  H      161.360     -23.943      -5.673
  H      161.937     -25.344      -3.715
  H      161.104     -28.920      -3.512
  H      163.608     -28.210      -4.661
  H      163.936     -26.431      -3.095
  H      162.846     -28.354      -0.963
  H      161.990     -26.129      -0.029
  H      163.747     -26.405       0.124
  P      166.465     -27.186      -2.733
  C      167.678     -27.008      -4.994
  O      166.658     -27.670      -4.251
  O      167.670     -27.348      -1.866
  O      166.094     -25.636      -2.903
  H      166.789     -25.097      -2.478
  H      167.715     -27.410      -5.985
  H      168.622     -27.156      -4.513
  H      167.462     -25.961      -5.042

 6  7  8  9  10  11  12  13  14  15  16  27  31  32  33  34  35 0
 6-311+G(2d,p)
 ****
 36  37 0
 6-311+G(2d,p)
 ****
 1  2  3  4  5  17  18  19  20  21  22  23  24  25 0
 3-21G
 ****
 26  28  29  30  38  39  40  41  42  43  44  45 0
 3-21G
 ****


