%nproc=1
%NoSave
%Mem=1900MB
#P OB98/GEN NMR

erre ene a

0 1
  C      -50.571     -84.354    -101.303
  O      -51.729     -85.076    -100.936
  H      -50.845     -83.611    -102.057
  H      -49.827     -85.028    -101.733
  H      -50.145     -83.834    -100.439
  P      -51.649     -86.093     -99.697
  C      -52.440     -84.352     -97.965
  O      -51.385     -85.207     -98.386
  C      -53.121     -84.934     -96.728
  O      -52.179     -85.035     -95.638
  C      -54.277     -84.091     -96.199
  O      -55.430     -84.244     -97.009
  C      -54.409     -84.644     -94.786
  O      -55.137     -85.879     -94.784
  C      -52.924     -84.876     -94.408
  N      -52.360     -83.802     -93.591
  C      -51.790     -84.178     -92.379
  O      -51.782     -85.344     -91.973
  N      -51.242     -83.166     -91.632
  C      -51.283     -81.835     -91.940
  O      -50.822     -80.961     -91.209
  C      -51.930     -81.490     -93.214
  C      -52.433     -82.472     -93.969
  O      -50.722     -87.253     -99.867
  O      -53.166     -86.572     -99.504
  H      -55.323     -86.094     -93.849
  H      -53.287     -87.453     -99.908
  H      -50.832     -83.419     -90.746
  H      -51.987     -80.441     -93.487
  H      -52.914     -82.235     -94.910
  H      -52.818     -85.818     -93.853
  H      -54.936     -83.964     -94.114
  H      -53.980     -83.035     -96.138
  H      -53.465     -85.951     -96.974
  H      -53.171     -84.266     -98.780
  H      -52.027     -83.359     -97.748
  P      -56.492     -83.055     -97.154
  C      -55.666     -82.454     -99.509
  O      -55.877     -81.981     -98.184
  O      -56.979     -82.478     -95.864
  O      -57.694     -83.709     -97.987
  H      -58.454     -83.878     -97.396
  H      -55.258     -81.667    -100.108
  H      -56.598     -82.773     -99.927
  H      -54.984     -83.278     -99.489

 6  7  8  9  10  11  12  13  14  15  16  26  31  32  33  34  35 0
 6-311+G(2d,p)
 ****
 36  37 0
 6-311+G(2d,p)
 ****
 1  2  3  4  5  17  18  19  20  21  22  23  24  25 0
 3-21G
 ****
 27  28  29  30  38  39  40  41  42  43  44  45 0
 3-21G
 ****


