%nproc=1
%NoSave
%Mem=1900MB
#P OB98/GEN NMR

erre ene a

0 1
  C     -625.765     647.350     -51.727
  O     -626.033     646.982     -53.063
  H     -626.634     647.093     -51.111
  H     -625.581     648.422     -51.641
  H     -624.895     646.794     -51.348
  P     -625.019     647.486     -54.204
  C     -625.794     645.470     -55.606
  O     -625.575     646.875     -55.577
  C     -627.179     645.138     -56.159
  O     -627.426     645.896     -57.365
  C     -627.351     643.675     -56.571
  O     -627.381     642.778     -55.473
  C     -628.534     643.741     -57.519
  O     -629.797     643.675     -56.859
  C     -628.356     645.132     -58.170
  N     -627.929     645.041     -59.559
  C     -628.941     644.796     -60.489
  O     -630.119     644.643     -60.187
  N     -628.532     644.693     -61.793
  C     -627.240     644.751     -62.238
  O     -626.931     644.602     -63.418
  C     -626.212     644.978     -61.206
  C     -626.597     645.108     -59.934
  O     -623.567     647.203     -53.950
  O     -625.352     649.045     -54.340
  H     -629.844     642.821     -56.399
  H     -624.624     649.524     -54.808
  H     -629.244     644.526     -62.489
  H     -625.180     645.027     -61.527
  H     -625.859     645.286     -59.151
  H     -629.303     645.683     -58.147
  H     -628.518     642.922     -58.241
  H     -626.481     643.390     -57.179
  H     -627.937     645.433     -55.423
  H     -625.724     645.101     -54.576
  H     -625.016     644.989     -56.209
  P     -626.950     641.243     -55.606
  C     -626.222     641.142     -53.107
  O     -627.027     640.579     -54.135
  O     -625.774     640.937     -56.474
  O     -628.259     640.614     -56.327
  H     -627.953     639.895     -56.911
  H     -626.377     640.602     -52.196
  H     -626.492     642.168     -52.964
  H     -625.191     641.080     -53.387

 6  7  8  9  10  11  12  13  14  15  16  26  31  32  33  34  35 0
 6-311+G(2d,p)
 ****
 36  37 0
 6-311+G(2d,p)
 ****
 1  2  3  4  5  17  18  19  20  21  22  23  24  25 0
 3-21G
 ****
 27  28  29  30  38  39  40  41  42  43  44  45 0
 3-21G
 ****


