%nproc=1
%NoSave
%Mem=1900MB
#P OB98/GEN NMR

erre ene a

0 1
  C      561.245    -346.137    -551.865
  O      561.532    -346.787    -553.091
  P      562.600    -347.984    -553.131
  C      564.213    -346.975    -554.863
  O      564.025    -347.350    -553.500
  C      565.535    -346.244    -555.037
  O      565.467    -344.923    -554.464
  C      566.716    -346.929    -554.362
  O      567.151    -348.051    -555.106
  C      567.716    -345.779    -554.283
  O      568.408    -345.630    -555.537
  C      566.798    -344.577    -554.028
  N      569.271    -341.958    -550.414
  C      569.621    -342.313    -551.671
  N      568.921    -343.044    -552.558
  C      567.750    -343.444    -552.023
  C      567.276    -343.193    -550.746
  C      568.081    -342.391    -549.927
  N      567.705    -341.971    -548.668
  N      566.050    -343.797    -550.565
  C      565.806    -344.414    -551.703
  N      566.766    -344.171    -552.636
  O      562.203    -349.166    -553.942
  O      562.773    -348.385    -551.590
  H      568.880    -344.767    -555.499
  H      562.513    -349.315    -551.468
  H      570.591    -341.947    -552.008
  H      564.930    -345.028    -551.912
  H      567.106    -343.703    -554.618
  H      568.472    -345.931    -553.513
  H      566.437    -347.227    -553.344
  H      565.721    -346.134    -556.115
  H      563.380    -346.321    -555.157
  H      568.286    -341.283    -548.222
  H      566.725    -342.019    -548.417
  H      564.183    -347.874    -555.493
  P      568.094    -349.142    -554.421
  C      569.915    -349.382    -556.214
  O      569.586    -348.871    -554.938
  O      567.631    -350.560    -554.525
  O      568.158    -348.676    -552.886
  H      568.248    -349.453    -552.299
  H      570.099    -350.454    -556.139
  H      570.811    -348.883    -556.572
  H      569.095    -349.195    -556.927
  H      560.516    -345.371    -552.029
  H      562.140    -345.699    -551.475
  H      560.862    -346.850    -551.165

 3  4  5  6  7  8  9  10  11  12  22  25  29  30  31  32 0
 6-311+G(2d,p)
 ****
 33  36  37 0
 6-311+G(2d,p)
 ****
 1  2  13  14  15  16  17  18  19  20  21  23  24  26 0
 3-21G
 ****
 27  28  34  35  38  39  40  41  42  43  44  45  46  47  48 0
 3-21G
 ****


