%nproc=1
%NoSave
%Mem=1900MB
#P OB98/GEN NMR

erre ene a

0 1
  C      289.314    -360.108    -217.395
  O      288.787    -358.935    -218.004
  P      288.144    -357.811    -217.062
  C      285.814    -358.625    -217.857
  O      286.671    -357.516    -217.622
  C      284.385    -358.164    -218.157
  O      283.839    -357.528    -216.959
  C      284.255    -357.151    -219.298
  O      283.009    -357.395    -219.949
  C      284.196    -355.826    -218.580
  O      283.620    -354.791    -219.383
  C      283.377    -356.217    -217.353
  N      282.673    -351.396    -215.796
  C      282.356    -352.015    -216.953
  N      282.572    -353.309    -217.292
  C      283.189    -353.967    -216.281
  C      283.601    -353.448    -215.069
  C      283.316    -352.094    -214.833
  N      283.623    -351.451    -213.656
  N      284.221    -354.420    -214.316
  C      284.192    -355.510    -215.064
  N      283.550    -355.291    -216.258
  O      288.968    -356.502    -217.462
  O      288.227    -358.080    -215.597
  H      283.566    -353.979    -218.844
  H      289.538    -356.217    -216.716
  H      281.852    -351.404    -217.703
  H      284.606    -356.468    -214.789
  H      282.306    -356.281    -217.574
  H      285.203    -355.500    -218.303
  H      285.079    -357.200    -220.033
  H      283.769    -359.049    -218.355
  H      285.799    -359.249    -216.961
  H      283.264    -350.526    -213.500
  H      283.930    -352.007    -212.864
  H      286.195    -359.210    -218.698
  P      283.062    -358.013    -221.428
  C      282.465    -355.981    -222.918
  O      282.026    -357.190    -222.319
  O      282.347    -359.451    -221.257
  O      284.440    -358.146    -221.986
  H      282.696    -360.064    -221.918
  H      281.953    -355.849    -223.881
  H      283.544    -355.976    -223.089
  H      282.203    -355.141    -222.269
  H      289.705    -360.757    -218.150
  H      288.537    -360.611    -216.859
  H      290.097    -359.837    -216.718

 3  4  5  6  7  8  9  10  11  12  22  25  29  30  31  32 0
 6-311+G(2d,p)
 ****
 33  36  37 0
 6-311+G(2d,p)
 ****
 1  2  13  14  15  16  17  18  19  20  21  23  24  26 0
 3-21G
 ****
 27  28  34  35  38  39  40  41  42  43  44  45  46  47  48 0
 3-21G
 ****


