%nproc=1
%NoSave
%Mem=1900MB
#P OB98/GEN NMR

erre ene a

0 1
  C     -129.991      48.596      -4.878
  O     -130.735      49.519      -4.078
  P     -131.329      50.864      -4.720
  C     -133.602      50.285      -5.746
  O     -132.934      50.831      -4.614
  C     -135.006      49.754      -5.428
  O     -134.943      48.408      -4.893
  C     -135.801      50.599      -4.427
  O     -137.171      50.487      -4.824
  C     -135.555      49.867      -3.121
  O     -136.512      50.193      -2.121
  C     -135.566      48.409      -3.597
  N     -134.882      47.517      -2.665
  C     -135.489      47.311      -1.426
  O     -136.522      47.914      -1.132
  N     -134.886      46.466      -0.525
  C     -133.729      45.951      -0.805
  N     -133.170      45.143       0.135
  C     -133.010      46.210      -2.068
  C     -133.645      46.984      -2.946
  O     -130.804      51.192      -6.080
  O     -130.917      52.004      -3.670
  H     -136.634      51.166      -2.118
  H     -130.793      52.848      -4.143
  H     -132.036      45.781      -2.245
  H     -133.204      47.230      -3.904
  H     -136.596      48.051      -3.723
  H     -134.564      50.131      -2.731
  H     -135.488      51.644      -4.394
  H     -135.553      49.691      -6.377
  H     -133.683      45.011       0.999
  H     -132.993      49.468      -6.148
  H     -132.229      44.786       0.070
  H     -133.664      51.051      -6.526
  P     -138.211      51.689      -4.636
  C     -138.108      53.170      -6.720
  O     -138.746      52.072      -6.096
  O     -137.698      52.844      -3.839
  O     -139.491      51.023      -3.936
  H     -140.041      51.724      -3.540
  H     -138.402      53.201      -7.772
  H     -137.020      53.075      -6.658
  H     -138.419      54.101      -6.237
  H     -129.682      47.769      -4.274
  H     -129.129      49.086      -5.279
  H     -130.606      48.243      -5.680

 3  4  5  6  7  8  9  10  11  12  13  23  27  28  29  30  32 0
 6-311+G(2d,p)
 ****
 34  35 0
 6-311+G(2d,p)
 ****
 1  2  14  15  16  17  18  19  20  21  22  24  25  26 0
 3-21G
 ****
 31  33  36  37  38  39  40  41  42  43  44  45  46 0
 3-21G
 ****


