%nproc=1
%NoSave
%Mem=1900MB
#P OB98/GEN NMR

erre ene a

0 1
  C      320.281    -287.929      88.686
  O      320.271    -287.324      87.408
  H      321.201    -287.642      89.203
  H      320.257    -289.020      88.588
  H      319.425    -287.588      89.273
  P      319.017    -287.674      86.466
  C      318.623    -289.697      84.891
  O      319.129    -289.245      86.140
  C      318.610    -291.223      84.840
  O      317.929    -291.766      85.991
  C      317.926    -291.805      83.607
  O      318.815    -291.846      82.501
  C      317.550    -293.193      84.109
  O      318.682    -294.089      84.061
  C      317.142    -292.910      85.564
  N      312.478    -294.775      85.010
  C      313.700    -295.298      84.635
  N      313.674    -296.484      83.985
  N      314.842    -294.710      84.858
  C      314.714    -293.498      85.460
  C      313.563    -292.874      85.882
  C      312.308    -293.564      85.679
  O      311.200    -293.190      86.062
  N      313.844    -291.667      86.471
  C      315.157    -291.551      86.374
  N      315.731    -292.636      85.758
  O      319.395    -286.983      85.070
  O      317.693    -287.206      86.957
  H      318.953    -294.210      83.135
  H      318.582    -286.618      84.672
  H      311.630    -295.286      84.843
  H      315.734    -290.709      86.733
  H      317.394    -293.748      86.224
  H      316.772    -293.652      83.489
  H      312.840    -296.835      83.539
  H      317.012    -291.246      83.362
  H      314.565    -296.832      83.646
  H      319.656    -291.562      84.896
  H      319.264    -289.313      84.092
  H      317.606    -289.313      84.754
  P      318.197    -292.096      81.045
  C      317.381    -294.169      79.705
  O      317.668    -293.611      80.982
  O      319.499    -292.110      80.107
  O      317.229    -291.055      80.593
  H      319.551    -291.280      79.601
  H      317.041    -295.177      79.824
  H      318.267    -294.160      79.105
  H      316.619    -293.590      79.226

 6  7  8  9  10  11  12  13  14  15  26  29  33  34 0
 6-311+G(2d,p)
 ****
 36  38  39  40  41 0
 6-311+G(2d,p)
 ****
 1  2  3  4  5  16  17  18  19  20  21  22  23  24  25 0
 3-21G
 ****
 27  28  30  31  32  35  37  42  43  44  45  46  47 0
 3-21G
 ****
 48  49 0
 3-21G
 ****


