%nproc=1
%NoSave
%Mem=1900MB
#P OB98/GEN NMR

erre ene a

0 1
  C     -191.996    -565.009      10.698
  O     -192.343    -565.214       9.344
  H     -191.118    -564.359      10.739
  H     -191.744    -565.960      11.177
  H     -192.816    -564.524      11.236
  P     -193.604    -566.143       9.008
  C     -194.168    -568.603       9.589
  O     -193.169    -567.603       9.539
  C     -193.776    -569.687      10.594
  O     -193.617    -569.139      11.922
  C     -194.800    -570.805      10.763
  O     -194.847    -571.714       9.675
  C     -194.265    -571.456      12.028
  O     -193.105    -572.241      11.722
  C     -193.899    -570.210      12.873
  N     -194.971    -569.808      13.785
  C     -195.320    -570.724      14.780
  O     -194.745    -571.817      14.861
  N     -196.339    -570.411      15.651
  C     -196.967    -569.283      15.515
  N     -197.977    -569.022      16.405
  C     -196.651    -568.297      14.475
  C     -195.648    -568.614      13.650
  O     -194.095    -566.097       7.599
  O     -194.712    -565.728      10.088
  H     -192.853    -572.698      12.543
  H     -195.520    -566.271       9.915
  H     -197.220    -567.386      14.389
  H     -195.358    -567.941      12.854
  H     -192.987    -570.386      13.448
  H     -194.989    -572.123      12.509
  H     -195.798    -570.398      10.973
  H     -192.797    -570.080      10.286
  H     -198.167    -569.722      17.109
  H     -194.285    -569.023       8.586
  H     -198.567    -568.211      16.331
  H     -195.116    -568.166       9.909
  P     -196.001    -572.828       9.707
  C     -196.329    -575.003      11.111
  O     -195.435    -574.036      10.594
  O     -195.991    -573.400       8.211
  O     -197.351    -572.336      10.122
  H     -196.702    -572.991       7.681
  H     -195.782    -575.730      11.674
  H     -196.837    -575.487      10.303
  H     -197.044    -574.524      11.747

 6  7  8  9  10  11  12  13  14  15  16  26  30  31  32  33  35 0
 6-311+G(2d,p)
 ****
 37  38 0
 6-311+G(2d,p)
 ****
 1  2  3  4  5  17  18  19  20  21  22  23  24  25 0
 3-21G
 ****
 27  28  29  34  36  39  40  41  42  43  44  45  46 0
 3-21G
 ****


