%nproc=1
%NoSave
%Mem=1900MB
#P OB98/GEN NMR

erre ene a

0 1
  C       11.002     284.884       9.337
  O       11.194     285.329       7.994
  P       10.295     284.699       6.826
  C       11.678     282.608       6.231
  O       10.490     283.104       6.832
  C       11.372     281.400       5.334
  O       12.490     281.130       4.439
  C       11.120     280.117       6.139
  O       10.159     279.284       5.474
  C       12.462     279.413       6.080
  O       12.337     278.017       6.344
  C       12.905     279.766       4.661
  N       16.573     277.342       2.033
  C       15.224     277.309       1.934
  N       14.314     277.999       2.651
  C       14.920     278.803       3.543
  C       16.283     278.950       3.751
  C       17.131     278.166       2.951
  N       18.502     278.177       3.073
  N       16.531     279.863       4.759
  C       15.336     280.221       5.181
  N       14.332     279.636       4.457
  O       10.424     285.347       5.490
  O        8.806     284.862       7.402
  H       11.981     277.598       5.541
  H        8.215     285.150       6.679
  H       14.827     276.635       1.179
  H       15.143     280.887       6.010
  H       12.403     279.143       3.913
  H       13.140     279.845       6.826
  H       10.787     280.285       7.169
  H       10.508     281.634       4.704
  H       12.392     282.322       7.008
  H       19.020     277.497       2.537
  H       18.919     278.671       3.849
  H       12.158     283.414       5.665
  P        8.705     279.194       6.165
  C        9.101     276.983       7.501
  O        8.921     278.380       7.527
  O        7.641     278.682       5.249
  O        8.472     280.705       6.638
  H        9.207     281.094       7.141
  H        9.357     276.641       8.507
  H        9.912     276.705       6.822
  H        8.173     276.489       7.191
  H       11.678     285.402       9.985
  H       11.189     283.832       9.394
  H        9.995     285.084       9.638

 3  4  5  6  7  8  9  10  11  12  22  25  29  30  31  32 0
 6-311+G(2d,p)
 ****
 33  36  37 0
 6-311+G(2d,p)
 ****
 1  2  13  14  15  16  17  18  19  20  21  23  24  26 0
 3-21G
 ****
 27  28  34  35  38  39  40  41  42  43  44  45  46  47  48 0
 3-21G
 ****


