%nproc=1
%NoSave
%Mem=1900MB
#P OB98/GEN NMR

erre ene a

0 1
  C     -181.770     -91.744     243.364
  O     -182.499     -90.728     244.022
  H     -180.877     -91.970     243.953
  H     -181.457     -91.404     242.374
  H     -182.368     -92.655     243.272
  P     -183.938     -90.314     243.448
  C     -182.881     -88.115     242.606
  O     -183.683     -89.244     242.282
  C     -181.903     -87.832     241.468
  O     -181.346     -89.068     240.970
  C     -182.541     -87.149     240.264
  O     -182.763     -85.776     240.511
  C     -181.508     -87.444     239.188
  O     -180.406     -86.528     239.267
  C     -181.064     -88.877     239.564
  N     -181.713     -89.905     238.751
  C     -180.885     -90.651     237.918
  O     -179.673     -90.457     237.819
  N     -181.505     -91.615     237.167
  C     -182.851     -91.825     237.089
  O     -183.365     -92.642     236.332
  C     -183.680     -90.990     237.971
  C     -183.082     -90.086     238.751
  O     -184.950     -89.911     244.467
  O     -184.409     -91.616     242.640
  H     -179.724     -86.864     238.654
  H     -185.090     -92.088     243.155
  H     -180.924     -92.155     236.548
  H     -184.751     -91.138     237.948
  H     -183.676     -89.459     239.404
  H     -179.978     -88.981     239.445
  H     -181.922     -87.363     238.184
  H     -183.478     -87.652     240.001
  H     -181.077     -87.226     241.867
  H     -182.321     -88.331     243.522
  H     -183.533     -87.253     242.783
  P     -184.257     -85.213     240.608
  C     -183.940     -83.566     238.660
  O     -184.676     -84.683     239.155
  O     -184.509     -84.259     241.726
  O     -185.149     -86.531     240.779
  H     -185.631     -86.490     241.627
  H     -184.304     -83.301     237.689
  H     -182.903     -83.823     238.595
  H     -184.061     -82.736     239.325

 6  7  8  9  10  11  12  13  14  15  16  26  31  32  33  34  35 0
 6-311+G(2d,p)
 ****
 36  37 0
 6-311+G(2d,p)
 ****
 1  2  3  4  5  17  18  19  20  21  22  23  24  25 0
 3-21G
 ****
 27  28  29  30  38  39  40  41  42  43  44  45 0
 3-21G
 ****


