%nproc=1
%NoSave
%Mem=1900MB
#P OB98/GEN NMR

erre ene a

0 1
  C     -203.432     -44.115     816.707
  O     -203.370     -42.717     816.908
  H     -204.267     -44.511     817.286
  H     -202.504     -44.595     817.041
  H     -203.595     -44.338     815.645
  P     -202.151     -41.903     816.261
  C     -201.767     -39.441     815.536
  O     -202.560     -40.352     816.302
  C     -202.294     -38.005     815.675
  O     -203.355     -37.802     814.672
  C     -202.911     -37.702     817.051
  O     -202.712     -36.294     817.307
  C     -204.384     -37.999     816.804
  O     -205.192     -37.481     817.825
  C     -204.544     -37.410     815.397
  N     -205.759     -37.891     814.730
  C     -206.922     -37.154     814.969
  O     -206.887     -36.170     815.714
  N     -208.096     -37.560     814.386
  C     -208.116     -38.644     813.678
  N     -209.311     -39.005     813.141
  C     -206.912     -39.499     813.455
  C     -205.781     -39.066     814.002
  O     -201.678     -42.390     814.929
  O     -200.988     -41.997     817.354
  H     -205.020     -37.938     818.681
  H     -200.308     -42.638     817.071
  H     -206.996     -40.408     812.874
  H     -204.859     -39.611     813.893
  H     -204.573     -36.321     815.435
  H     -204.560     -39.088     816.782
  H     -202.475     -38.293     817.857
  H     -201.497     -37.307     815.431
  H     -210.101     -38.401     813.317
  H     -201.823     -39.769     814.494
  H     -209.463     -39.853     812.580
  H     -200.730     -39.484     815.863
  P     -201.501     -35.742     818.190
  C     -201.169     -33.477     819.406
  O     -202.045     -34.588     819.175
  O     -200.294     -35.338     817.402
  O     -201.146     -36.943     819.203
  H     -200.199     -36.897     819.418
  H     -201.640     -32.784     820.071
  H     -200.957     -32.991     818.477
  H     -200.257     -33.827     819.842

 6  7  8  9  10  11  12  13  14  15  16  26  30  31  32  33  35 0
 6-311+G(2d,p)
 ****
 37  38 0
 6-311+G(2d,p)
 ****
 1  2  3  4  5  17  18  19  20  21  22  23  24  25 0
 3-21G
 ****
 27  28  29  34  36  39  40  41  42  43  44  45  46 0
 3-21G
 ****


