%nproc=1
%NoSave
%Mem=1900MB
#P OB98/GEN NMR

erre ene a

0 1
  C       74.860     -40.362     -52.637
  O       73.672     -39.748     -52.178
  H       75.406     -40.801     -51.798
  H       74.598     -41.157     -53.340
  H       75.491     -39.630     -53.149
  P       73.837     -38.570     -51.102
  C       73.814     -40.381     -49.234
  O       74.485     -39.269     -49.810
  C       74.525     -40.789     -47.949
  O       75.858     -41.263     -48.249
  C       74.705     -39.647     -46.957
  O       73.545     -39.417     -46.176
  C       75.843     -40.186     -46.108
  O       75.342     -41.178     -45.196
  C       76.738     -40.841     -47.171
  N       81.696     -39.574     -47.056
  C       81.002     -40.557     -46.443
  N       79.688     -40.840     -46.542
  C       79.080     -39.992     -47.385
  C       79.657     -38.946     -48.088
  C       81.034     -38.743     -47.894
  N       81.739     -37.723     -48.492
  N       78.707     -38.282     -48.838
  C       77.583     -38.929     -48.606
  N       77.751     -39.949     -47.709
  O       72.337     -38.268     -50.633
  O       74.559     -37.352     -51.572
  H       76.117     -41.621     -44.801
  H       72.296     -37.422     -50.148
  H       81.579     -41.198     -45.782
  H       76.625     -38.692     -49.050
  H       77.256     -41.732     -46.795
  H       76.325     -39.411     -45.507
  H       75.036     -38.729     -47.456
  H       73.971     -41.620     -47.497
  H       73.830     -41.214     -49.945
  H       82.683     -37.569     -48.177
  H       81.230     -37.013     -48.999
  H       72.776     -40.109     -49.021
  P       73.111     -37.890     -45.926
  C       74.362     -38.032     -43.654
  O       74.144     -37.296     -44.851
  O       71.754     -38.036     -45.093
  O       72.929     -37.084     -47.170
  H       71.143     -37.302     -45.292
  H       75.070     -37.515     -43.041
  H       74.742     -39.003     -43.896
  H       73.438     -38.133     -43.124

 6  7  8  9  10  11  12  13  14  15  25  28  32  33  34  35 0
 6-311+G(2d,p)
 ****
 36  39  40 0
 6-311+G(2d,p)
 ****
 1  2  3  4  5  16  17  18  19  20  21  22  23  24 0
 3-21G
 ****
 26  27  29  30  31  37  38  41  42  43  44  45  46  47 0
 3-21G
 ****
 48 0
 3-21G
 ****


