%nproc=1
%NoSave
%Mem=1900MB
#P OB98/GEN NMR

erre ene a

0 1
  C      206.330    -778.735     430.445
  O      205.224    -778.142     429.801
  H      207.124    -778.901     429.707
  H      206.052    -779.703     430.879
  H      206.716    -778.075     431.227
  P      203.885    -777.903     430.644
  C      203.447    -775.370     430.370
  O      203.111    -776.680     429.944
  C      202.527    -774.332     429.707
  O      202.982    -774.095     428.340
  C      201.056    -774.780     429.619
  O      200.245    -773.600     429.673
  C      201.011    -775.400     428.228
  O      199.685    -775.589     427.794
  C      201.883    -774.404     427.456
  N      202.328    -774.935     426.183
  C      201.368    -775.013     425.168
  O      200.211    -774.661     425.382
  N      201.744    -775.519     423.946
  C      202.941    -775.972     423.769
  N      203.238    -776.474     422.545
  C      203.973    -775.960     424.835
  C      203.603    -775.426     426.000
  O      204.067    -777.766     432.123
  O      202.965    -779.167     430.283
  H      199.658    -775.766     426.819
  H      202.961    -779.793     431.029
  H      204.958    -776.360     424.643
  H      204.286    -775.371     426.843
  H      201.330    -773.469     427.267
  H      201.480    -776.391     428.235
  H      200.764    -775.472     430.418
  H      202.619    -773.383     430.242
  H      202.497    -776.474     421.846
  H      204.484    -775.184     430.066
  H      204.136    -776.873     422.305
  H      203.374    -775.283     431.454
  P      198.952    -773.467     430.613
  C      199.981    -771.748     432.249
  O      198.943    -772.023     431.309
  O      198.779    -774.605     431.577
  O      197.702    -773.406     429.603
  H      196.924    -773.803     430.030
  H      199.859    -770.758     432.636
  H      200.931    -771.826     431.764
  H      199.931    -772.453     433.052

 6  7  8  9  10  11  12  13  14  15  16  26  30  31  32  33  35 0
 6-311+G(2d,p)
 ****
 37  38 0
 6-311+G(2d,p)
 ****
 1  2  3  4  5  17  18  19  20  21  22  23  24  25 0
 3-21G
 ****
 27  28  29  34  36  39  40  41  42  43  44  45  46 0
 3-21G
 ****


