%nproc=1
%NoSave
%Mem=1900MB
#P OB98/GEN NMR

erre ene a

0 1
  C      128.250      71.320     767.829
  O      127.483      71.444     766.650
  H      128.466      70.269     768.005
  H      127.697      71.721     768.685
  H      129.208      71.857     767.721
  P      127.048      72.934     766.225
  C      124.565      72.836     766.986
  O      125.865      73.353     767.237
  C      123.501      73.799     767.529
  O      123.509      73.804     768.969
  C      123.671      75.244     767.081
  O      123.122      75.456     765.780
  C      122.905      75.990     768.173
  O      121.485      75.959     767.920
  C      123.258      75.162     769.419
  N      124.881      78.810     772.514
  C      123.612      78.574     772.010
  N      122.657      79.474     772.322
  N      123.327      77.553     771.240
  C      124.389      76.757     770.982
  C      125.686      76.884     771.440
  C      125.994      77.996     772.311
  O      127.068      78.226     772.853
  N      126.484      75.870     770.962
  C      125.679      75.157     770.194
  N      124.408      75.668     770.150
  O      126.286      72.719     764.837
  O      128.164      73.913     766.099
  H      121.042      76.585     768.512
  H      126.404      73.511     764.279
  H      125.034      79.596     773.113
  H      125.971      74.264     769.647
  H      122.421      75.122     770.129
  H      123.198      77.034     768.229
  H      122.887      80.411     772.614
  H      124.738      75.536     767.112
  H      121.737      79.317     771.935
  H      122.518      73.403     767.203
  H      124.463      71.866     767.487
  H      124.431      72.700     765.905
  P      123.891      76.461     764.807
  C      122.470      78.521     765.499
  O      123.751      77.925     765.459
  O      122.945      76.537     763.517
  O      125.288      76.045     764.444
  H      123.436      76.901     762.751
  H      122.539      79.485     765.958
  H      121.806      77.903     766.067
  H      122.094      78.627     764.503

 6  7  8  9  10  11  12  13  14  15  26  29  33  34 0
 6-311+G(2d,p)
 ****
 36  38  39  40  41 0
 6-311+G(2d,p)
 ****
 1  2  3  4  5  16  17  18  19  20  21  22  23  24  25 0
 3-21G
 ****
 27  28  30  31  32  35  37  42  43  44  45  46  47 0
 3-21G
 ****
 48  49 0
 3-21G
 ****


