%nproc=1
%NoSave
%Mem=1900MB
#P OB98/GEN NMR

erre ene a

0 1
  C      120.215     691.320      35.310
  O      120.704     691.882      36.514
  H      120.654     690.323      35.184
  H      120.513     691.944      34.464
  H      119.128     691.224      35.342
  P      120.029     693.254      36.993
  C      118.538     691.971      38.686
  O      118.588     692.871      37.589
  C      118.048     692.697      39.940
  O      116.802     693.380      39.671
  C      117.783     691.779      41.131
  O      118.975     691.483      41.841
  C      116.855     692.662      41.953
  O      117.627     693.667      42.644
  C      115.983     693.301      40.869
  N      111.742     691.316      42.811
  C      112.768     691.998      43.436
  N      112.655     692.166      44.770
  N      113.818     692.468      42.812
  C      113.802     692.215      41.478
  C      112.841     691.554      40.746
  C      111.685     691.046      41.450
  O      110.736     690.454      40.943
  N      113.169     691.502      39.421
  C      114.338     692.115      39.350
  N      114.768     692.559      40.573
  O      119.669     693.991      35.613
  O      120.874     694.116      37.864
  H      117.000     694.208      43.151
  H      119.794     694.954      35.731
  H      110.961     690.964      43.344
  H      114.904     692.264      38.442
  H      115.678     694.321      41.128
  H      116.311     692.100      42.719
  H      111.898     691.785      45.317
  H      117.250     690.874      40.828
  H      113.379     692.688      45.246
  H      118.791     693.463      40.197
  H      119.540     691.573      38.872
  H      117.861     691.147      38.443
  P      119.219     689.956      42.275
  C      121.497     689.774      41.044
  O      120.151     689.326      41.128
  O      117.794     689.272      42.010
  O      119.683     689.764      43.679
  H      117.701     688.472      42.557
  H      121.991     689.270      40.239
  H      122.002     689.560      41.963
  H      121.511     690.829      40.867

 6  7  8  9  10  11  12  13  14  15  26  29  33  34 0
 6-311+G(2d,p)
 ****
 36  38  39  40  41 0
 6-311+G(2d,p)
 ****
 1  2  3  4  5  16  17  18  19  20  21  22  23  24  25 0
 3-21G
 ****
 27  28  30  31  32  35  37  42  43  44  45  46  47 0
 3-21G
 ****
 48  49 0
 3-21G
 ****


