%nproc=1
%NoSave
%Mem=1900MB
#P OB98/GEN NMR

erre ene a

0 1
  C      -48.381     -73.834     263.466
  O      -47.926     -74.621     262.380
  P      -48.960     -75.695     261.777
  C      -49.820     -78.023     262.593
  O      -49.161     -76.809     262.916
  C      -49.301     -79.141     263.499
  O      -49.437     -78.772     264.885
  C      -50.038     -80.467     263.339
  O      -49.539     -81.179     262.218
  C      -49.744     -81.139     264.675
  O      -48.435     -81.745     264.671
  C      -49.796     -79.956     265.649
  N      -52.571     -80.957     269.754
  C      -51.341     -81.456     269.369
  N      -50.747     -82.312     270.228
  N      -50.749     -81.140     268.249
  C      -51.466     -80.288     267.486
  C      -52.700     -79.738     267.750
  C      -53.322     -80.054     269.014
  O      -54.363     -79.564     269.446
  N      -53.121     -78.932     266.722
  C      -52.127     -78.967     265.855
  N      -51.091     -79.761     266.282
  O      -48.098     -76.437     260.655
  O      -50.235     -75.121     261.247
  H      -48.350     -82.327     263.899
  H      -48.299     -76.072     259.770
  H      -52.976     -81.222     270.637
  H      -52.103     -78.430     264.923
  H      -49.059     -80.052     266.461
  H      -50.457     -81.940     264.899
  H      -51.154     -82.620     271.097
  H      -51.114     -80.297     263.244
  H      -49.842     -82.691     269.965
  H      -48.230     -79.271     263.296
  H      -49.617     -78.281     261.552
  H      -50.901     -77.892     262.723
  P      -50.261     -82.560     261.846
  C      -50.342     -84.945     262.875
  O      -49.953     -83.591     263.033
  O      -49.385     -83.113     260.621
  O      -51.698     -82.430     261.466
  H      -49.965     -83.569     259.981
  H      -49.647     -85.574     263.443
  H      -50.325     -85.252     261.827
  H      -51.349     -85.074     263.274
  H      -47.604     -73.165     263.772
  H      -48.644     -74.472     264.284
  H      -49.239     -73.271     263.163

 3  4  5  6  7  8  9  10  11  12  23  26  30  31 0
 6-311+G(2d,p)
 ****
 33  35  36  37  38 0
 6-311+G(2d,p)
 ****
 1  2  13  14  15  16  17  18  19  20  21  22  24  25 0
 3-21G
 ****
 27  28  29  32  34  39  40  41  42  43  44  45  46  47  48  49 0
 3-21G
 ****


