%nproc=1
%NoSave
%Mem=1900MB
#P OB98/GEN NMR

erre ene a

0 1
  C      668.427    -927.034    -251.423
  O      668.201    -928.435    -251.460
  H      667.473    -926.521    -251.345
  H      668.911    -926.743    -252.365
  H      669.063    -926.764    -250.578
  P      669.450    -929.394    -251.186
  C      669.576    -931.950    -250.717
  O      668.932    -930.904    -251.429
  C      668.812    -933.267    -250.900
  O      667.567    -933.202    -250.152
  C      668.461    -933.579    -252.358
  O      668.572    -935.005    -252.567
  C      667.002    -933.205    -252.448
  O      666.325    -933.885    -253.512
  C      666.528    -933.605    -251.052
  N      661.564    -934.171    -251.571
  C      662.595    -935.036    -251.833
  N      662.273    -936.244    -252.374
  N      663.851    -934.771    -251.582
  C      664.042    -933.549    -251.039
  C      663.111    -932.586    -250.740
  C      661.717    -932.892    -251.024
  O      660.747    -932.149    -250.846
  N      663.701    -931.453    -250.240
  C      665.008    -931.718    -250.259
  N      665.241    -932.982    -250.736
  O      669.629    -929.308    -249.592
  O      670.709    -929.033    -251.899
  H      665.388    -933.617    -253.479
  H      670.288    -928.632    -249.366
  H      660.612    -934.423    -251.808
  H      665.783    -931.044    -249.969
  H      666.387    -934.691    -250.949
  H      666.905    -932.137    -252.609
  H      661.328    -936.542    -252.561
  H      669.081    -933.061    -253.092
  H      663.012    -936.909    -252.526
  H      669.413    -934.078    -250.461
  H      669.592    -931.692    -249.644
  H      670.612    -932.048    -251.077
  P      670.036    -935.636    -252.785
  C      671.031    -938.025    -252.562
  O      669.912    -937.220    -252.913
  O      670.741    -935.419    -251.350
  O      670.825    -934.969    -253.856
  H      671.679    -935.245    -251.475
  H      670.786    -939.057    -252.703
  H      671.285    -937.856    -251.536
  H      671.864    -937.768    -253.182

 6  7  8  9  10  11  12  13  14  15  26  29  33  34 0
 6-311+G(2d,p)
 ****
 36  38  39  40  41 0
 6-311+G(2d,p)
 ****
 1  2  3  4  5  16  17  18  19  20  21  22  23  24  25 0
 3-21G
 ****
 27  28  30  31  32  35  37  42  43  44  45  46  47 0
 3-21G
 ****
 48  49 0
 3-21G
 ****


