%nproc=1
%NoSave
%Mem=1900MB
#P OB98/GEN NMR

erre ene a

0 1
  C     -157.059    -119.280    -424.001
  O     -158.112    -119.657    -424.863
  H     -157.263    -118.279    -423.614
  H     -156.114    -119.253    -424.551
  H     -156.977    -119.970    -423.158
  P     -158.161    -121.163    -425.410
  C     -159.741    -122.108    -423.604
  O     -158.424    -122.108    -424.142
  C     -160.275    -123.536    -423.542
  O     -160.131    -124.179    -424.827
  C     -159.547    -124.431    -422.548
  O     -159.939    -124.140    -421.221
  C     -159.957    -125.806    -423.051
  O     -161.274    -126.147    -422.591
  C     -159.945    -125.590    -424.583
  N     -158.723    -126.077    -425.225
  C     -158.641    -127.447    -425.447
  O     -159.519    -128.234    -425.098
  N     -157.503    -127.886    -426.071
  C     -156.431    -127.111    -426.410
  O     -155.409    -127.564    -426.921
  C     -156.557    -125.678    -426.119
  C     -157.678    -125.232    -425.552
  O     -157.018    -121.577    -426.276
  O     -159.552    -121.229    -426.201
  H     -161.421    -127.081    -422.837
  H     -159.391    -121.143    -427.158
  H     -157.424    -128.876    -426.230
  H     -155.721    -125.037    -426.369
  H     -157.789    -124.176    -425.324
  H     -160.799    -126.103    -425.045
  H     -159.290    -126.598    -422.707
  H     -158.460    -124.325    -422.666
  H     -161.348    -123.491    -423.311
  H     -160.386    -121.504    -424.253
  H     -159.716    -121.660    -422.607
  P     -159.171    -124.791    -419.978
  C     -157.337    -123.083    -419.444
  O     -157.633    -124.328    -420.063
  O     -159.371    -126.259    -419.805
  O     -159.722    -123.978    -418.713
  H     -160.339    -124.539    -418.205
  H     -156.295    -122.868    -419.556
  H     -157.581    -123.135    -418.403
  H     -157.913    -122.309    -419.907

 6  7  8  9  10  11  12  13  14  15  16  26  31  32  33  34  35 0
 6-311+G(2d,p)
 ****
 36  37 0
 6-311+G(2d,p)
 ****
 1  2  3  4  5  17  18  19  20  21  22  23  24  25 0
 3-21G
 ****
 27  28  29  30  38  39  40  41  42  43  44  45 0
 3-21G
 ****


