%nproc=1
%NoSave
%Mem=1900MB
#P OB98/GEN NMR

erre ene a

0 1
  C     -899.270     458.410    -220.115
  O     -897.970     458.287    -220.653
  H     -900.000     458.211    -220.915
  H     -899.440     459.426    -219.743
  H     -899.430     457.688    -219.313
  P     -896.720     458.590    -219.699
  C     -895.130     456.978    -220.946
  O     -895.400     458.325    -220.576
  C     -894.070     456.926    -222.050
  O     -894.550     457.728    -223.164
  C     -892.720     457.516    -221.593
  O     -891.620     456.631    -221.812
  C     -892.680     458.883    -222.275
  O     -891.380     459.386    -222.514
  C     -893.520     458.657    -223.535
  N     -894.120     459.877    -224.074
  C     -894.700     459.788    -225.350
  O     -894.760     458.757    -226.029
  N     -895.230     460.947    -225.839
  C     -895.230     462.159    -225.216
  O     -895.740     463.172    -225.691
  C     -894.590     462.205    -223.887
  C     -894.060     461.077    -223.397
  O     -896.730     457.922    -218.365
  O     -896.740     460.195    -219.547
  H     -890.860     459.244    -221.713
  H     -897.100     460.432    -218.679
  H     -895.660     460.899    -226.747
  H     -894.560     463.148    -223.374
  H     -893.590     461.067    -222.419
  H     -892.920     458.205    -224.324
  H     -893.190     459.606    -221.626
  H     -892.710     457.664    -220.513
  H     -893.970     455.899    -222.397
  H     -896.070     456.537    -221.308
  H     -894.780     456.426    -220.068
  P     -890.850     455.833    -220.666
  C     -889.940     453.718    -221.917
  O     -889.660     454.996    -221.352
  O     -891.720     455.102    -219.687
  O     -890.070     457.006    -219.857
  H     -890.030     456.711    -218.929
  H     -889.042     453.305    -222.327
  H     -890.671     453.823    -222.692
  H     -890.317     453.067    -221.157

 6  7  8  9  10  11  12  13  14  15  16  26  31  32  33  34  35 0
 6-311+G(2d,p)
 ****
 36  37 0
 6-311+G(2d,p)
 ****
 1  2  3  4  5  17  18  19  20  21  22  23  24  25 0
 3-21G
 ****
 27  28  29  30  38  39  40  41  42  43  44  45 0
 3-21G
 ****


