%nproc=1
%NoSave
%Mem=1900MB
#P OB98/GEN NMR

erre ene a

0 1
  C      450.810     182.883     571.316
  O      449.944     183.198     572.401
  P      450.522     183.534     573.865
  C      449.806     181.265     574.892
  O      450.878     182.113     574.513
  C      449.964     180.853     576.362
  O      448.737     180.171     576.759
  C      451.132     179.887     576.631
  O      451.645     180.217     577.930
  C      450.467     178.531     576.636
  O      451.228     177.553     577.338
  C      449.117     178.873     577.281
  N      448.083     177.874     576.987
  C      447.910     176.849     577.906
  O      448.597     176.765     578.925
  N      446.914     175.912     577.670
  C      446.239     175.955     576.560
  N      445.250     175.043     576.396
  C      446.482     176.967     575.510
  C      447.395     177.890     575.802
  O      449.638     184.407     574.695
  O      451.970     184.145     573.583
  H      450.750     176.704     577.289
  H      451.949     185.127     573.388
  H      445.919     176.948     574.594
  H      447.616     178.695     575.097
  H      449.231     178.983     578.376
  H      450.334     178.179     575.600
  H      451.927     179.986     575.886
  H      450.051     181.751     576.974
  H      444.990     174.499     577.203
  H      449.828     180.371     574.265
  H      444.480     175.220     575.745
  H      448.856     181.790     574.726
  P      453.243     180.390     578.096
  C      453.668     178.136     579.318
  O      453.892     178.918     578.163
  O      453.352     180.885     579.613
  O      453.901     181.375     577.186
  H      454.175     181.386     579.721
  H      454.175     177.172     579.189
  H      452.592     177.940     579.452
  H      454.084     178.627     580.213
  H      450.228     182.694     570.438
  H      451.383     182.013     571.558
  H      451.470     183.706     571.136

 3  4  5  6  7  8  9  10  11  12  13  23  27  28  29  30  32 0
 6-311+G(2d,p)
 ****
 34  35 0
 6-311+G(2d,p)
 ****
 1  2  14  15  16  17  18  19  20  21  22  24  25  26 0
 3-21G
 ****
 31  33  36  37  38  39  40  41  42  43  44  45  46 0
 3-21G
 ****


