%nproc=1
%NoSave
%Mem=1900MB
#P OB98/GEN NMR

erre ene a

0 1
  C     -181.185     378.907    -198.698
  O     -180.318     379.774    -199.444
  P     -178.729     379.855    -199.207
  C     -178.276     379.805    -201.749
  O     -178.023     380.464    -200.517
  C     -178.487     380.799    -202.893
  O     -179.771     381.482    -202.739
  C     -177.403     381.891    -203.005
  O     -177.172     382.103    -204.397
  C     -178.091     383.089    -202.359
  O     -177.495     384.330    -202.685
  C     -179.512     382.894    -202.902
  N     -180.552     383.690    -202.252
  C     -181.495     384.322    -203.073
  O     -181.424     384.262    -204.306
  N     -182.502     385.043    -202.482
  C     -182.568     385.135    -201.192
  N     -183.598     385.856    -200.665
  C     -181.583     384.502    -200.291
  C     -180.617     383.802    -200.881
  O     -178.127     378.559    -198.759
  O     -178.521     380.986    -198.091
  H     -177.774     380.734    -197.513
  H     -177.573     384.463    -203.647
  H     -181.677     384.599    -199.217
  H     -179.869     383.282    -200.283
  H     -179.514     383.099    -203.980
  H     -178.055     382.973    -201.276
  H     -176.453     381.616    -202.531
  H     -178.548     380.233    -203.829
  H     -184.263     386.262    -201.319
  H     -179.177     379.196    -201.634
  H     -183.748     385.977    -199.671
  H     -177.434     379.136    -201.972
  P     -175.976     381.331    -205.133
  C     -177.151     381.323    -207.464
  O     -176.030     381.719    -206.693
  O     -176.518     379.827    -205.153
  O     -174.634     381.393    -204.465
  H     -175.759     379.207    -205.195
  H     -177.464     382.166    -208.092
  H     -177.992     381.007    -206.847
  H     -176.853     380.491    -208.116
  H     -182.192     379.033    -199.036
  H     -181.125     379.151    -197.658
  H     -180.884     377.891    -198.843

 3  4  5  6  7  8  9  10  11  12  13  24  27  28  29  30  32 0
 6-311+G(2d,p)
 ****
 34  35 0
 6-311+G(2d,p)
 ****
 1  2  14  15  16  17  18  19  20  21  22  23  25  26 0
 3-21G
 ****
 31  33  36  37  38  39  40  41  42  43  44  45  46 0
 3-21G
 ****


