%nproc=1
%NoSave
%Mem=1900MB
#P OB98/GEN NMR

erre ene a

0 1
  C       76.832     113.221     167.674
  O       76.112     112.879     166.506
  H       77.882     113.368     167.409
  H       76.762     112.411     168.407
  H       76.440     114.150     168.106
  P       74.518     112.787     166.636
  C       72.881     110.897     167.439
  O       74.154     111.241     166.913
  C       72.912     109.468     167.980
  O       73.747     109.364     169.148
  C       71.561     108.957     168.452
  O       70.669     108.699     167.390
  C       71.988     107.710     169.214
  O       72.260     106.624     168.317
  C       73.292     108.200     169.896
  N       73.114     108.503     171.307
  C       72.929     107.396     172.144
  O       72.932     106.253     171.677
  N       72.705     107.614     173.485
  C       72.696     108.824     173.946
  N       72.466     108.979     175.278
  C       72.917     110.016     173.104
  C       73.109     109.786     171.806
  O       74.033     113.000     165.125
  O       73.903     113.722     167.625
  H       72.556     105.877     168.875
  H       74.453     112.393     164.493
  H       72.911     111.007     173.541
  H       73.277     110.604     171.119
  H       74.082     107.442     169.799
  H       71.219     107.368     169.907
  H       71.124     109.660     169.174
  H       73.335     108.820     167.197
  H       72.300     108.134     175.825
  H       72.098     111.009     166.683
  H       72.403     109.868     175.747
  H       72.658     111.600     168.250
  P       69.084     108.643     167.650
  C       67.627     107.013     169.006
  O       68.769     107.156     168.164
  O       68.241     109.102     166.510
  O       68.900     109.512     168.989
  H       69.387     109.175     169.759
  H       67.516     105.986     169.285
  H       66.753     107.336     168.480
  H       67.755     107.610     169.885

 6  7  8  9  10  11  12  13  14  15  16  26  30  31  32  33  35 0
 6-311+G(2d,p)
 ****
 37  38 0
 6-311+G(2d,p)
 ****
 1  2  3  4  5  17  18  19  20  21  22  23  24  25 0
 3-21G
 ****
 27  28  29  34  36  39  40  41  42  43  44  45  46 0
 3-21G
 ****


