%nproc=1
%NoSave
%Mem=1900MB
#P OB98/GEN NMR

erre ene a

0 1
  C      572.738    -676.745     -72.974
  O      574.001    -676.644     -73.639
  P      574.656    -675.183     -73.748
  C      577.188    -675.766     -73.352
  O      576.166    -675.374     -74.249
  C      577.330    -677.303     -73.312
  O      577.776    -677.761     -74.619
  C      578.345    -677.837     -72.320
  O      578.073    -679.225     -72.077
  C      579.640    -677.711     -73.102
  O      580.671    -678.515     -72.552
  C      579.193    -678.073     -74.532
  N      579.932    -677.347     -75.582
  C      581.150    -677.867     -76.023
  O      581.659    -678.910     -75.566
  N      581.815    -677.140     -76.965
  C      581.378    -675.990     -77.553
  O      582.057    -675.343     -78.326
  C      580.033    -675.561     -77.164
  C      579.387    -676.241     -76.220
  O      574.805    -674.719     -72.229
  O      573.853    -674.227     -74.555
  H      580.835    -678.179     -71.646
  H      574.124    -674.059     -72.017
  H      582.730    -677.482     -77.238
  H      579.614    -674.693     -77.655
  H      578.390    -675.928     -75.901
  H      579.321    -679.148     -74.728
  H      579.987    -676.675     -73.065
  H      578.388    -677.299     -71.370
  H      576.339    -677.742     -73.133
  H      576.975    -675.384     -72.362
  H      578.143    -675.334     -73.660
  P      577.343    -679.633     -70.697
  C      576.127    -681.784     -71.393
  O      577.233    -681.224     -70.711
  O      576.088    -678.883     -70.398
  O      578.486    -679.357     -69.607
  H      578.070    -679.283     -68.717
  H      576.402    -682.770     -71.767
  H      575.814    -681.162     -72.242
  H      575.293    -681.882     -70.703
  H      572.417    -677.766     -72.972
  H      572.016    -676.145     -73.487
  H      572.837    -676.400     -71.966

 3  4  5  6  7  8  9  10  11  12  13  23  28  29  30  31  32 0
 6-311+G(2d,p)
 ****
 33  34 0
 6-311+G(2d,p)
 ****
 1  2  14  15  16  17  18  19  20  21  22  24  25  26  27 0
 3-21G
 ****
 35  36  37  38  39  40  41  42  43  44  45 0
 3-21G
 ****


