%nproc=1
%NoSave
%Mem=1900MB
#P OB98/GEN NMR

erre ene a

0 1
  C     -294.393    -345.883     759.310
  O     -293.795    -345.017     758.355
  P     -293.112    -343.613     758.689
  C     -294.279    -342.498     756.609
  O     -293.093    -342.729     757.356
  C     -294.015    -341.535     755.437
  O     -293.749    -340.210     755.975
  C     -292.785    -341.938     754.604
  O     -292.982    -341.806     753.203
  C     -291.672    -341.125     755.231
  O     -290.536    -340.970     754.394
  C     -292.398    -339.834     755.624
  N     -289.358    -335.975     757.024
  C     -289.640    -336.452     755.754
  N     -289.024    -335.834     754.720
  N     -290.444    -337.458     755.523
  C     -290.928    -338.036     756.646
  C     -290.704    -337.670     757.952
  C     -289.857    -336.525     758.200
  O     -289.583    -336.049     759.299
  N     -291.378    -338.490     758.817
  C     -291.982    -339.362     758.046
  N     -291.751    -339.123     756.715
  O     -291.852    -343.670     759.481
  O     -294.217    -342.859     759.594
  H     -289.950    -340.309     754.802
  H     -293.720    -342.293     760.221
  H     -288.751    -335.185     757.143
  H     -292.617    -340.168     758.396
  H     -292.451    -339.132     754.793
  H     -291.335    -341.659     756.128
  H     -288.305    -335.140     754.838
  H     -292.569    -343.003     754.728
  H     -289.065    -336.325     753.828
  H     -294.916    -341.479     754.823
  H     -294.994    -342.054     757.302
  H     -294.697    -343.447     756.261
  P     -293.052    -342.947     752.088
  C     -290.977    -342.501     750.651
  O     -292.384    -342.384     750.739
  O     -294.601    -343.050     751.700
  O     -292.533    -344.278     752.524
  H     -294.928    -343.952     751.913
  H     -290.627    -341.861     749.829
  H     -290.704    -343.538     750.419
  H     -290.499    -342.189     751.577
  H     -294.772    -346.753     758.815
  H     -295.196    -345.373     759.800
  H     -293.661    -346.175     760.034

 3  4  5  6  7  8  9  10  11  12  23  26  30  31 0
 6-311+G(2d,p)
 ****
 33  35  36  37  38 0
 6-311+G(2d,p)
 ****
 1  2  13  14  15  16  17  18  19  20  21  22  24  25 0
 3-21G
 ****
 27  28  29  32  34  39  40  41  42  43  44  45  46  47  48  49 0
 3-21G
 ****


