%nproc=1
%NoSave
%Mem=1900MB
#P OB98/GEN NMR

erre ene a

0 1
  C       71.466    -451.431     228.763
  O       72.581    -451.088     227.962
  H       71.813    -451.770     229.743
  H       70.846    -450.542     228.899
  H       70.870    -452.212     228.287
  P       73.465    -452.293     227.385
  C       72.181    -452.594     225.149
  O       72.503    -453.143     226.419
  C       72.900    -453.354     224.038
  O       72.497    -454.750     224.099
  C       72.604    -452.840     222.620
  O       73.810    -452.903     221.853
  C       71.618    -453.860     222.080
  O       71.632    -453.938     220.658
  C       72.098    -455.130     222.768
  N       68.886    -457.768     219.842
  C       69.995    -457.059     219.550
  N       70.828    -456.431     220.402
  C       70.459    -456.641     221.673
  C       69.357    -457.348     222.130
  C       68.535    -457.917     221.141
  N       67.364    -458.583     221.424
  N       69.282    -457.293     223.507
  C       70.307    -456.548     223.877
  N       71.047    -456.127     222.802
  O       73.638    -453.239     228.668
  O       74.783    -451.904     226.797
  H       72.556    -454.002     220.355
  H       74.416    -452.954     229.179
  H       70.242    -456.976     218.490
  H       70.539    -456.256     224.889
  H       72.965    -455.584     222.264
  H       70.606    -453.595     222.402
  H       72.205    -451.818     222.596
  H       73.981    -453.325     224.240
  H       72.499    -451.542     225.123
  H       66.782    -458.865     220.649
  H       67.033    -458.606     222.378
  H       71.096    -452.637     224.998
  P       74.310    -451.551     221.147
  C       75.948    -451.138     223.130
  O       74.954    -450.602     222.268
  O       72.947    -450.809     220.767
  O       75.166    -451.780     219.945
  H       73.057    -450.297     219.950
  H       76.272    -450.382     223.815
  H       76.781    -451.473     222.549
  H       75.540    -451.962     223.676

 6  7  8  9  10  11  12  13  14  15  25  28  32  33  34  35 0
 6-311+G(2d,p)
 ****
 36  39  40 0
 6-311+G(2d,p)
 ****
 1  2  3  4  5  16  17  18  19  20  21  22  23  24 0
 3-21G
 ****
 26  27  29  30  31  37  38  41  42  43  44  45  46  47 0
 3-21G
 ****
 48 0
 3-21G
 ****


