%nproc=1
%NoSave
%Mem=1900MB
#P OB98/GEN NMR

erre ene a

0 1
  C       -4.392     673.274    -358.654
  O       -5.014     674.507    -358.959
  H       -3.802     673.399    -357.741
  H       -3.720     672.979    -359.463
  H       -5.140     672.492    -358.485
  P       -6.065     674.560    -360.167
  C       -8.083     674.311    -358.577
  O       -7.443     675.111    -359.564
  C       -9.185     675.118    -357.892
  O       -8.611     676.188    -357.107
  C      -10.158     675.781    -358.859
  O      -11.070     674.851    -359.390
  C      -10.773     676.844    -357.957
  O      -11.808     676.275    -357.137
  C       -9.562     677.275    -357.103
  N       -8.947     678.516    -357.569
  C       -9.262     679.670    -356.858
  O      -10.034     679.686    -355.903
  N       -8.673     680.825    -357.307
  C       -7.910     680.955    -358.430
  O       -7.484     682.032    -358.841
  C       -7.636     679.707    -359.159
  C       -8.159     678.566    -358.701
  O       -6.183     673.314    -360.981
  O       -5.550     675.790    -361.059
  H      -12.157     677.006    -356.592
  H       -5.110     675.444    -361.862
  H       -8.900     681.674    -356.806
  H       -7.025     679.767    -360.050
  H       -7.968     677.636    -359.230
  H       -9.866     677.416    -356.056
  H      -11.221     677.659    -358.527
  H       -9.599     676.284    -359.662
  H       -9.725     674.447    -357.202
  H       -7.338     674.007    -357.834
  H       -8.497     673.419    -359.060
  P      -11.653     675.064    -360.870
  C      -10.515     673.031    -361.959
  O      -11.753     673.624    -361.570
  O      -10.974     676.114    -361.681
  O      -13.186     675.443    -360.621
  H      -13.369     676.332    -360.982
  H      -10.702     672.080    -362.412
  H       -9.896     672.900    -361.096
  H      -10.019     673.669    -362.661

 6  7  8  9  10  11  12  13  14  15  16  26  31  32  33  34  35 0
 6-311+G(2d,p)
 ****
 36  37 0
 6-311+G(2d,p)
 ****
 1  2  3  4  5  17  18  19  20  21  22  23  24  25 0
 3-21G
 ****
 27  28  29  30  38  39  40  41  42  43  44  45 0
 3-21G
 ****


