%nproc=1
%NoSave
%Mem=1900MB
#P OB98/GEN NMR

erre ene a

0 1
  C      220.628     187.328     619.393
  O      221.610     188.035     618.658
  H      221.133     186.639     620.077
  H      219.985     186.748     618.723
  H      220.023     188.023     619.983
  P      221.126     189.058     617.526
  C      223.213     190.577     617.286
  O      222.447     189.509     616.734
  C      224.375     190.937     616.362
  O      225.338     189.864     616.321
  C      223.969     191.182     614.912
  O      223.338     192.446     614.776
  C      225.314     191.047     614.216
  O      226.099     192.237     614.372
  C      225.941     189.866     615.004
  N      225.771     188.576     614.348
  C      226.394     188.427     613.101
  O      227.020     189.364     612.611
  N      226.265     187.222     612.442
  C      225.613     186.248     612.992
  N      225.525     185.089     612.292
  C      224.975     186.349     614.321
  C      225.079     187.528     614.934
  O      220.263     190.193     617.984
  O      220.365     188.129     616.466
  H      225.605     192.953     613.919
  H      219.411     188.112     616.651
  H      224.451     185.498     614.747
  H      224.645     187.686     615.914
  H      227.016     190.032     615.149
  H      225.207     190.870     613.144
  H      223.311     190.381     614.561
  H      224.881     191.817     616.786
  H      225.999     185.058     611.395
  H      223.597     190.232     618.253
  H      225.194     184.216     612.680
  H      222.584     191.454     617.459
  P      222.083     192.656     613.802
  C      220.686     194.086     615.428
  O      221.445     194.072     614.223
  O      221.120     191.523     613.744
  O      222.757     192.998     612.388
  H      223.098     192.169     611.959
  H      220.315     195.074     615.604
  H      221.309     193.788     616.245
  H      219.864     193.406     615.340

 6  7  8  9  10  11  12  13  14  15  16  26  30  31  32  33  35 0
 6-311+G(2d,p)
 ****
 37  38 0
 6-311+G(2d,p)
 ****
 1  2  3  4  5  17  18  19  20  21  22  23  24  25 0
 3-21G
 ****
 27  28  29  34  36  39  40  41  42  43  44  45  46 0
 3-21G
 ****


