%nproc=1
%NoSave
%Mem=1900MB
#P OB98/GEN NMR

erre ene a

0 1
  C       59.322      53.998      64.429
  O       59.394      52.586      64.442
  H       60.178      54.424      64.957
  H       59.342      54.343      63.392
  H       58.391      54.333      64.896
  P       59.415      51.877      65.881
  C       61.999      51.599      65.758
  O       60.889      52.142      66.459
  C       63.072      51.185      66.758
  O       64.249      50.719      66.058
  C       63.548      52.321      67.655
  O       62.685      52.541      68.758
  C       64.893      51.780      68.108
  O       64.699      50.779      69.122
  C       65.417      51.136      66.815
  N       70.104      53.037      66.018
  C       69.644      52.104      66.880
  N       68.385      51.638      67.014
  C       67.562      52.228      66.134
  C       67.888      53.190      65.192
  C       69.231      53.603      65.154
  N       69.698      54.576      64.299
  N       66.768      53.572      64.480
  C       65.791      52.840      64.974
  N       66.214      52.036      65.998
  O       59.440      50.314      65.536
  O       58.310      52.253      66.810
  H       65.584      50.450      69.371
  H       59.229      49.787      66.330
  H       70.383      51.678      67.552
  H       64.763      52.863      64.635
  H       66.027      50.245      67.005
  H       65.536      52.553      68.537
  H       63.708      53.243      67.087
  H       62.686      50.348      67.352
  H       62.400      52.360      65.080
  H       70.638      54.908      64.448
  H       69.032      55.107      63.757
  H       61.672      50.733      65.175
  P       62.346      54.064      69.141
  C       64.227      54.264      70.922
  O       63.715      54.713      69.673
  O       61.470      53.911      70.470
  O       61.633      54.830      68.075
  H       60.807      54.625      70.533
  H       65.136      54.783      71.142
  H       64.420      53.213      70.871
  H       63.510      54.459      71.692

 6  7  8  9  10  11  12  13  14  15  25  28  32  33  34  35 0
 6-311+G(2d,p)
 ****
 36  39  40 0
 6-311+G(2d,p)
 ****
 1  2  3  4  5  16  17  18  19  20  21  22  23  24 0
 3-21G
 ****
 26  27  29  30  31  37  38  41  42  43  44  45  46  47 0
 3-21G
 ****
 48 0
 3-21G
 ****


