%nproc=1
%NoSave
%Mem=1900MB
#P OB98/GEN NMR

erre ene a

0 1
  C     -458.126    -537.580     114.267
  O     -457.976    -538.995     114.283
  P     -458.518    -539.768     115.579
  C     -457.967    -539.626     118.126
  O     -457.597    -539.307     116.799
  C     -456.982    -539.008     119.117
  O     -457.064    -537.561     119.057
  C     -457.217    -539.394     120.566
  O     -456.658    -540.661     120.831
  C     -456.540    -538.240     121.299
  O     -455.110    -538.448     121.362
  C     -456.886    -537.036     120.409
  N     -458.588    -533.059     123.022
  C     -457.321    -533.587     122.946
  N     -456.350    -532.946     123.635
  N     -457.022    -534.667     122.253
  C     -458.090    -535.212     121.625
  C     -459.400    -534.789     121.639
  C     -459.700    -533.569     122.356
  O     -460.792    -533.000     122.373
  N     -460.207    -535.619     120.902
  C     -459.373    -536.521     120.419
  N     -458.070    -536.318     120.814
  O     -458.084    -541.283     115.303
  O     -459.991    -539.641     115.830
  H     -454.778    -538.589     120.455
  H     -458.831    -541.804     114.946
  H     -458.759    -532.217     123.542
  H     -459.660    -537.329     119.769
  H     -456.071    -536.311     120.363
  H     -456.890    -538.149     122.333
  H     -456.504    -532.134     124.213
  H     -458.297    -539.392     120.791
  H     -455.415    -533.336     123.600
  H     -455.973    -539.288     118.791
  H     -457.967    -540.712     118.244
  H     -458.998    -539.257     118.318
  P     -457.359    -541.559     121.967
  C     -457.680    -541.122     124.503
  O     -456.822    -541.039     123.388
  O     -456.669    -542.987     121.795
  O     -458.846    -541.654     121.844
  H     -457.314    -543.689     121.965
  H     -457.065    -541.264     125.409
  H     -458.374    -541.977     124.426
  H     -458.259    -540.208     124.603
  H     -457.727    -537.189     113.354
  H     -457.600    -537.156     115.097
  H     -459.164    -537.331     114.338

 3  4  5  6  7  8  9  10  11  12  23  26  30  31 0
 6-311+G(2d,p)
 ****
 33  35  36  37  38 0
 6-311+G(2d,p)
 ****
 1  2  13  14  15  16  17  18  19  20  21  22  24  25 0
 3-21G
 ****
 27  28  29  32  34  39  40  41  42  43  44  45  46  47  48  49 0
 3-21G
 ****


