%nproc=1
%NoSave
%Mem=1900MB
#P OB98/GEN NMR

erre ene a

0 1
  C      -63.973     -37.323     738.491
  O      -64.888     -37.057     739.532
  H      -63.423     -38.242     738.698
  H      -64.528     -37.447     737.557
  H      -63.276     -36.488     738.375
  P      -64.272     -36.874     741.004
  C      -64.920     -34.363     741.066
  O      -63.876     -35.324     741.160
  C      -64.348     -33.005     740.660
  O      -63.883     -33.103     739.284
  C      -65.343     -31.838     740.749
  O      -64.835     -30.823     741.620
  C      -65.393     -31.274     739.334
  O      -65.434     -29.846     739.298
  C      -64.126     -31.821     738.686
  N      -64.545     -29.175     734.348
  C      -64.036     -28.839     735.554
  N      -63.852     -29.625     736.638
  C      -64.239     -30.887     736.383
  C      -64.758     -31.382     735.196
  C      -64.928     -30.461     734.150
  N      -65.500     -30.789     732.943
  N      -65.047     -32.730     735.317
  C      -64.752     -33.030     736.566
  N      -64.279     -31.943     737.253
  O      -62.855     -37.614     740.902
  O      -65.107     -37.426     742.112
  H      -64.540     -29.535     739.531
  H      -62.741     -38.210     741.668
  H      -63.732     -27.803     735.662
  H      -64.902     -33.994     737.035
  H      -63.252     -31.182     738.890
  H      -66.289     -31.658     738.836
  H      -66.337     -32.153     741.085
  H      -63.469     -32.806     741.281
  H      -65.416     -34.261     742.039
  H      -65.690     -30.041     732.291
  H      -65.887     -31.718     732.827
  H      -65.657     -34.710     740.334
  P      -65.448     -30.775     743.106
  C      -63.290     -31.805     744.142
  O      -64.705     -31.903     743.968
  O      -66.922     -31.381     742.904
  O      -65.483     -29.411     743.709
  H      -67.521     -31.034     743.592
  H      -62.946     -32.626     744.736
  H      -63.054     -30.885     744.634
  H      -62.810     -31.831     743.186

 6  7  8  9  10  11  12  13  14  15  25  28  32  33  34  35 0
 6-311+G(2d,p)
 ****
 36  39  40 0
 6-311+G(2d,p)
 ****
 1  2  3  4  5  16  17  18  19  20  21  22  23  24 0
 3-21G
 ****
 26  27  29  30  31  37  38  41  42  43  44  45  46  47  48 0
 3-21G
 ****


