%nproc=1
%NoSave
%Mem=1900MB
#P OB98/GEN NMR

erre ene a

0 1
  C       45.820     -20.823    -119.751
  O       44.546     -20.270    -119.478
  P       44.007     -20.205    -117.971
  C       42.075     -21.880    -118.459
  O       43.222     -21.575    -117.695
  C       41.013     -22.586    -117.606
  O       41.688     -23.564    -116.775
  C       40.252     -21.676    -116.646
  O       39.055     -22.344    -116.241
  C       41.208     -21.592    -115.476
  O       40.558     -21.181    -114.277
  C       41.825     -23.014    -115.443
  N       43.243     -22.980    -115.046
  C       43.525     -23.169    -113.696
  O       42.659     -23.434    -112.863
  N       44.824     -22.960    -113.321
  C       45.826     -22.543    -114.146
  O       46.885     -22.069    -113.751
  C       45.525     -22.594    -115.586
  C       44.258     -22.782    -115.965
  O       42.844     -19.108    -118.058
  O       45.033     -19.846    -116.952
  H       40.213     -20.272    -114.436
  H       43.183     -18.237    -117.785
  H       44.997     -22.957    -112.322
  H       46.332     -22.416    -116.283
  H       43.996     -22.773    -117.020
  H       41.292     -23.664    -114.739
  H       41.986     -20.852    -115.701
  H       40.018     -20.689    -117.055
  H       40.318     -23.124    -118.263
  H       42.365     -22.504    -119.309
  H       41.644     -20.964    -118.880
  P       37.730     -21.458    -116.058
  C       37.853     -21.592    -113.495
  O       37.859     -20.745    -114.627
  O       36.436     -22.157    -116.313
  O       37.962     -20.244    -117.080
  H       37.111     -19.810    -117.275
  H       38.436     -21.122    -112.699
  H       38.288     -22.569    -113.724
  H       36.824     -21.725    -113.150
  H       46.009     -20.782    -120.803
  H       45.844     -21.841    -119.424
  H       46.570     -20.264    -119.232

 3  4  5  6  7  8  9  10  11  12  13  23  28  29  30  31  32 0
 6-311+G(2d,p)
 ****
 33  34 0
 6-311+G(2d,p)
 ****
 1  2  14  15  16  17  18  19  20  21  22  24  25  26  27 0
 3-21G
 ****
 35  36  37  38  39  40  41  42  43  44  45 0
 3-21G
 ****


