%nproc=1
%NoSave
%Mem=1900MB
#P OB98/GEN NMR

erre ene a

0 1
  C     -236.745    -565.154    -359.613
  O     -237.135    -566.341    -358.944
  H     -237.645    -564.597    -359.893
  H     -236.186    -565.401    -360.525
  H     -236.132    -564.534    -358.954
  P     -235.947    -567.331    -358.508
  C     -236.006    -568.599    -360.772
  O     -235.239    -567.813    -359.867
  C     -235.384    -569.983    -360.942
  O     -236.200    -570.807    -361.804
  C     -233.980    -569.974    -361.538
  O     -233.003    -569.735    -360.538
  C     -233.894    -571.379    -362.115
  O     -233.593    -572.346    -361.084
  C     -235.318    -571.590    -362.659
  N     -235.627    -573.334    -367.395
  C     -235.346    -573.997    -366.213
  N     -235.088    -575.320    -366.311
  N     -235.319    -573.418    -365.043
  C     -235.545    -572.083    -365.096
  C     -235.827    -571.308    -366.200
  C     -235.912    -571.973    -367.488
  O     -236.238    -571.454    -368.552
  N     -236.010    -569.991    -365.851
  C     -235.810    -569.966    -364.550
  N     -235.515    -571.211    -364.042
  O     -236.725    -568.643    -358.009
  O     -235.033    -566.811    -357.450
  H     -233.861    -573.229    -361.388
  H     -236.250    -569.014    -357.239
  H     -235.670    -573.834    -368.262
  H     -235.867    -569.087    -363.923
  H     -235.632    -572.637    -362.573
  H     -233.100    -571.462    -362.860
  H     -234.814    -575.746    -367.179
  H     -233.904    -569.240    -362.353
  H     -234.809    -575.787    -365.455
  H     -235.377    -570.462    -359.954
  H     -236.034    -568.090    -361.739
  H     -237.027    -568.696    -360.386
  P     -231.519    -569.341    -361.009
  C     -230.561    -571.504    -359.933
  O     -230.653    -570.695    -361.095
  O     -230.927    -568.597    -359.718
  O     -231.464    -568.463    -362.213
  H     -230.895    -567.635    -359.881
  H     -229.958    -572.362    -360.143
  H     -231.540    -571.820    -359.640
  H     -230.116    -570.940    -359.140

 6  7  8  9  10  11  12  13  14  15  26  29  33  34 0
 6-311+G(2d,p)
 ****
 36  38  39  40  41 0
 6-311+G(2d,p)
 ****
 1  2  3  4  5  16  17  18  19  20  21  22  23  24  25 0
 3-21G
 ****
 27  28  30  31  32  35  37  42  43  44  45  46  47 0
 3-21G
 ****
 48  49 0
 3-21G
 ****


