%nproc=1
%NoSave
%Mem=1900MB
#P OB98/GEN NMR

erre ene a

0 1
  C      731.569    -177.022     215.295
  O      731.265    -178.321     215.757
  H      732.492    -176.687     215.771
  H      730.763    -176.338     215.563
  H      731.718    -177.018     214.211
  P      730.131    -179.170     215.009
  C      730.204    -180.693     212.928
  O      730.902    -180.230     214.078
  C      731.171    -181.336     211.925
  O      732.025    -180.291     211.367
  C      732.090    -182.400     212.537
  O      732.377    -183.364     211.511
  C      733.332    -181.589     212.856
  O      734.462    -182.416     213.057
  C      733.393    -180.663     211.639
  N      734.249    -179.496     211.863
  C      735.591    -179.751     212.108
  O      736.060    -180.888     212.183
  N      736.375    -178.656     212.322
  C      735.952    -177.358     212.374
  O      736.699    -176.417     212.604
  C      734.510    -177.147     212.144
  C      733.735    -178.213     211.900
  O      729.080    -178.374     214.312
  O      729.512    -180.103     216.154
  H      734.304    -183.033     213.804
  H      728.570    -180.284     215.963
  H      737.362    -178.820     212.500
  H      734.134    -176.139     212.186
  H      732.672    -178.096     211.724
  H      733.773    -181.193     210.762
  H      733.192    -181.009     213.772
  H      731.665    -182.891     213.414
  H      730.589    -181.747     211.093
  H      729.699    -179.844     212.471
  H      729.444    -181.432     213.234
  P      731.936    -184.903     211.640
  C      729.694    -186.149     211.379
  O      730.531    -185.100     210.888
  O      731.965    -185.428     213.034
  O      732.969    -185.700     210.711
  H      733.079    -186.609     211.047
  H      728.792    -186.184     210.804
  H      729.456    -185.964     212.406
  H      730.207    -187.084     211.295

 6  7  8  9  10  11  12  13  14  15  16  26  31  32  33  34  35 0
 6-311+G(2d,p)
 ****
 36  37 0
 6-311+G(2d,p)
 ****
 1  2  3  4  5  17  18  19  20  21  22  23  24  25 0
 3-21G
 ****
 27  28  29  30  38  39  40  41  42  43  44  45 0
 3-21G
 ****


