%nproc=1
%NoSave
%Mem=1900MB
#P OB98/GEN NMR

erre ene a

0 1
  C       53.961       7.156     -89.858
  O       55.114       7.076     -89.044
  H       53.999       8.085     -90.433
  H       53.059       7.162     -89.240
  H       53.933       6.311     -90.551
  P       55.206       5.833     -88.036
  C       53.677       4.878     -86.163
  O       53.998       5.987     -86.994
  C       52.586       5.280     -85.174
  O       53.066       6.350     -84.325
  C       51.323       5.820     -85.830
  O       50.486       4.794     -86.335
  C       50.690       6.561     -84.665
  O       49.921       5.684     -83.831
  C       51.915       7.114     -83.912
  N       52.092       8.545     -84.144
  C       51.729       9.377     -83.089
  O       51.288       8.959     -82.020
  N       51.855      10.720     -83.317
  C       52.248      11.299     -84.489
  O       52.284      12.514     -84.643
  C       52.603      10.372     -85.574
  C       52.506       9.056     -85.359
  O       56.507       6.165     -87.165
  O       55.300       4.496     -88.693
  H       57.241       5.582     -87.432
  H       50.556       5.042     -83.458
  H       51.599      11.340     -82.564
  H       52.919      10.798     -86.518
  H       52.751       8.352     -86.148
  H       51.804       6.955     -82.832
  H       50.018       7.341     -85.018
  H       51.581       6.542     -86.614
  H       52.353       4.414     -84.541
  H       54.566       4.567     -85.605
  H       53.348       4.044     -86.793
  P       49.925       4.954     -87.831
  C       48.340       6.716     -88.974
  O       48.901       6.186     -87.783
  O       48.997       3.656     -87.937
  O       51.005       5.048     -88.854
  H       48.666       3.375     -87.066
  H       47.687       7.527     -88.730
  H       47.787       5.952     -89.478
  H       49.124       7.068     -89.611

 6  7  8  9  10  11  12  13  14  15  16  27  31  32  33  34  35 0
 6-311+G(2d,p)
 ****
 36  37 0
 6-311+G(2d,p)
 ****
 1  2  3  4  5  17  18  19  20  21  22  23  24  25 0
 3-21G
 ****
 26  28  29  30  38  39  40  41  42  43  44  45 0
 3-21G
 ****


