%nproc=1
%NoSave
%Mem=1900MB
#P OB98/GEN NMR

erre ene a

0 1
  C      -18.631      32.731     415.800
  O      -17.873      32.918     416.976
  H      -18.393      33.535     415.099
  H      -19.696      32.778     416.035
  H      -18.397      31.774     415.325
  P      -17.806      31.729     418.050
  C      -15.526      30.682     417.454
  O      -16.940      30.558     417.379
  C      -14.866      29.303     417.581
  O      -15.116      28.548     416.361
  C      -13.340      29.359     417.778
  O      -12.970      28.220     418.566
  C      -12.839      29.203     416.356
  O      -11.480      28.828     416.325
  C      -13.837      28.175     415.815
  N      -13.854      28.135     414.354
  C      -13.349      26.987     413.757
  O      -12.870      26.050     414.397
  N      -13.363      26.962     412.389
  C      -13.771      27.980     411.577
  O      -13.733      27.915     410.356
  C      -14.256      29.190     412.262
  C      -14.281      29.212     413.598
  O      -19.116      31.292     418.616
  O      -16.821      32.281     419.187
  H      -10.940      29.460     416.848
  H      -17.065      31.903     420.054
  H      -13.009      26.130     411.943
  H      -14.579      30.018     411.649
  H      -14.633      30.087     414.132
  H      -13.593      27.169     416.177
  H      -12.931      30.147     415.810
  H      -13.002      30.282     418.254
  H      -15.348      28.757     418.398
  H      -15.287      31.289     418.332
  H      -15.156      31.189     416.558
  P      -12.241      28.366     419.989
  C      -14.387      28.137     421.403
  O      -13.289      28.976     421.041
  O      -10.935      29.089     419.937
  O      -12.036      26.862     420.499
  H      -11.258      26.815     421.086
  H      -15.011      28.650     422.105
  H      -14.017      27.237     421.847
  H      -14.955      27.896     420.529

 6  7  8  9  10  11  12  13  14  15  16  26  31  32  33  34  35 0
 6-311+G(2d,p)
 ****
 36  37 0
 6-311+G(2d,p)
 ****
 1  2  3  4  5  17  18  19  20  21  22  23  24  25 0
 3-21G
 ****
 27  28  29  30  38  39  40  41  42  43  44  45 0
 3-21G
 ****


