%nproc=1
%NoSave
%Mem=1900MB
#P OB98/GEN NMR

erre ene a

0 1
  C       48.428     227.845     381.440
  O       49.365     226.924     382.021
  P       50.604     226.330     381.188
  C       52.587     224.745     381.642
  O       51.272     225.141     382.035
  C       53.228     223.812     382.680
  O       53.439     224.504     383.926
  C       52.399     222.576     383.015
  O       52.539     221.594     382.004
  C       52.986     222.187     384.372
  O       54.213     221.455     384.198
  C       53.264     223.558     385.000
  N       51.596     223.507     389.840
  C       52.712     223.006     389.259
  N       53.082     223.055     387.964
  C       52.170     223.726     387.238
  C       50.982     224.291     387.684
  C       50.701     224.159     389.056
  N       49.557     224.657     389.638
  N       50.296     224.877     386.644
  C       51.065     224.689     385.588
  N       52.203     224.002     385.896
  O       51.577     227.363     380.713
  O       49.936     225.572     379.948
  H       54.593     221.308     385.087
  H       50.555     225.568     379.189
  H       53.398     222.497     389.932
  H       50.837     225.030     384.583
  H       54.198     223.560     385.572
  H       52.311     221.559     384.960
  H       51.349     222.852     383.141
  H       54.213     223.520     382.298
  H       53.201     225.646     381.532
  H       49.411     224.491     390.622
  H       48.863     225.104     389.055
  H       52.523     224.238     380.673
  P       51.236     220.972     381.303
  C       50.513     220.848     378.847
  O       51.592     220.749     379.757
  O       49.960     221.697     381.564
  O       51.182     219.474     381.874
  H       50.253     219.176     381.906
  H       49.943     219.915     378.851
  H       50.916     221.014     377.842
  H       49.856     221.683     379.106
  H       47.689     228.109     382.168
  H       47.952     227.386     380.599
  H       48.945     228.726     381.121

 3  4  5  6  7  8  9  10  11  12  22  25  29  30  31  32 0
 6-311+G(2d,p)
 ****
 33  36  37 0
 6-311+G(2d,p)
 ****
 1  2  13  14  15  16  17  18  19  20  21  23  24  26 0
 3-21G
 ****
 27  28  34  35  38  39  40  41  42  43  44  45  46  47  48 0
 3-21G
 ****


