%nproc=1
%NoSave
%Mem=1900MB
#P OB98/GEN NMR

erre ene a

0 1
  C      583.677      95.353    -238.879
  O      582.964      96.276    -238.083
  H      583.162      94.389    -238.848
  H      584.688      95.224    -238.483
  H      583.721      95.697    -239.916
  P      583.503      97.787    -238.061
  C      581.850      98.658    -239.860
  O      583.202      98.394    -239.522
  C      581.718     100.022    -240.532
  O      582.414      99.986    -241.814
  C      580.270     100.456    -240.811
  O      580.191     101.878    -240.648
  C      580.097     100.140    -242.287
  O      579.040     100.881    -242.890
  C      581.491     100.490    -242.805
  N      583.764     101.372    -247.206
  C      583.728     102.126    -246.048
  N      584.402     103.297    -246.063
  N      583.087     101.762    -244.970
  C      582.484     100.552    -245.081
  C      582.439      99.713    -246.172
  C      583.129     100.144    -247.372
  O      583.180      99.528    -248.432
  N      581.699      98.590    -245.898
  C      581.300      98.747    -244.648
  N      581.753      99.925    -244.113
  O      585.093      97.588    -238.053
  O      583.035      98.617    -236.914
  H      578.208     100.647    -242.430
  H      585.429      97.598    -237.138
  H      584.260     101.705    -248.014
  H      580.688      98.052    -244.092
  H      581.644     101.573    -242.887
  H      579.888      99.068    -242.424
  H      584.956     103.619    -246.840
  H      579.524      99.969    -240.177
  H      584.428     103.844    -245.205
  H      582.234     100.769    -239.914
  H      581.246      98.649    -238.944
  H      581.487      97.874    -240.532
  P      579.909     102.454    -239.179
  C      582.370     102.845    -238.430
  O      581.169     102.101    -238.258
  O      578.776     101.465    -238.620
  O      579.456     103.877    -239.151
  H      578.226     101.929    -237.967
  H      583.111     102.490    -237.745
  H      582.178     103.881    -238.242
  H      582.724     102.724    -239.432

 6  7  8  9  10  11  12  13  14  15  26  29  33  34 0
 6-311+G(2d,p)
 ****
 36  38  39  40  41 0
 6-311+G(2d,p)
 ****
 1  2  3  4  5  16  17  18  19  20  21  22  23  24  25 0
 3-21G
 ****
 27  28  30  31  32  35  37  42  43  44  45  46  47 0
 3-21G
 ****
 48  49 0
 3-21G
 ****


