%nproc=1
%NoSave
%Mem=1900MB
#P OB98/GEN NMR

erre ene a

0 1
  C     1465.158    -540.133    -101.657
  O     1465.094    -541.388    -101.005
  P     1463.780    -542.311    -101.124
  C     1463.278    -544.816    -100.680
  O     1464.236    -543.764    -100.592
  C     1463.882    -546.103    -100.131
  O     1464.980    -546.506    -100.979
  C     1464.447    -545.987     -98.715
  O     1463.423    -546.001     -97.756
  C     1465.399    -547.195     -98.696
  O     1464.650    -548.401     -98.445
  C     1465.953    -547.224    -100.159
  N     1467.272    -546.619    -100.240
  C     1468.325    -547.325     -99.659
  O     1468.120    -548.424     -99.089
  N     1469.600    -546.839     -99.748
  C     1469.816    -545.718    -100.379
  N     1471.106    -545.302    -100.493
  C     1468.722    -544.908    -100.968
  C     1467.502    -545.412    -100.882
  O     1463.159    -542.320    -102.504
  O     1462.803    -541.803     -99.976
  H     1465.268    -549.160     -98.566
  H     1462.207    -541.072    -100.259
  H     1468.939    -543.965    -101.451
  H     1466.660    -544.884    -101.300
  H     1465.971    -548.254    -100.536
  H     1466.182    -547.141     -97.941
  H     1465.051    -545.070     -98.616
  H     1463.123    -546.894    -100.173
  H     1471.822    -545.997    -100.242
  H     1462.995    -544.970    -101.711
  H     1471.365    -544.607    -101.192
  H     1462.384    -544.524    -100.099
  P     1463.869    -545.868     -96.227
  C     1462.693    -544.998     -94.068
  O     1462.550    -545.455     -95.401
  O     1464.796    -544.566     -96.202
  O     1464.587    -547.087     -95.695
  H     1465.745    -544.825     -96.193
  H     1461.760    -544.535     -93.767
  H     1463.482    -544.256     -93.986
  H     1462.890    -545.860     -93.405
  H     1466.105    -539.676    -101.458
  H     1464.374    -539.502    -101.294
  H     1465.044    -540.273    -102.712

 3  4  5  6  7  8  9  10  11  12  13  23  27  28  29  30  32 0
 6-311+G(2d,p)
 ****
 34  35 0
 6-311+G(2d,p)
 ****
 1  2  14  15  16  17  18  19  20  21  22  24  25  26 0
 3-21G
 ****
 31  33  36  37  38  39  40  41  42  43  44  45  46 0
 3-21G
 ****


