%nproc=1
%NoSave
%Mem=1900MB
#P OB98/GEN NMR

erre ene a

0 1
  C      197.656     -25.961    -179.832
  O      196.841     -24.795    -179.852
  P      196.304     -24.242    -178.442
  C      197.743     -22.068    -178.528
  O      197.454     -23.294    -177.847
  C      197.136     -20.895    -177.759
  O      197.585     -20.887    -176.385
  C      197.516     -19.533    -178.321
  O      196.724     -19.158    -179.442
  C      197.209     -18.629    -177.127
  O      195.787     -18.363    -177.064
  C      197.638     -19.511    -175.943
  N      200.458     -16.077    -173.500
  C      199.075     -16.160    -173.639
  N      198.353     -15.145    -173.092
  N      198.457     -17.136    -174.247
  C      199.313     -18.076    -174.748
  C      200.693     -18.097    -174.671
  C      201.361     -17.006    -174.004
  O      202.570     -16.847    -173.894
  N      201.202     -19.222    -175.279
  C      200.148     -19.857    -175.724
  N      198.970     -19.186    -175.472
  O      196.368     -25.527    -177.482
  O      194.935     -23.647    -178.480
  H      195.653     -17.840    -176.249
  H      195.816     -25.391    -176.693
  H      200.867     -15.298    -173.022
  H      200.173     -20.800    -176.257
  H      196.941     -19.421    -175.093
  H      197.717     -17.663    -177.180
  H      198.768     -14.334    -172.681
  H      198.599     -19.476    -178.539
  H      197.354     -15.150    -173.249
  H      196.046     -21.010    -177.755
  H      197.315     -22.109    -179.535
  H      198.828     -21.957    -178.622
  P      197.101     -17.767    -180.171
  C      197.209     -18.810    -182.537
  O      197.918     -18.174    -181.493
  O      198.234     -17.157    -179.195
  O      195.938     -16.832    -180.355
  H      198.239     -16.185    -179.277
  H      197.825     -18.773    -183.450
  H      196.263     -18.296    -182.747
  H      197.012     -19.856    -182.288
  H      197.940     -26.215    -180.832
  H      197.108     -26.772    -179.400
  H      198.533     -25.773    -179.249

 3  4  5  6  7  8  9  10  11  12  23  26  30  31 0
 6-311+G(2d,p)
 ****
 33  35  36  37  38 0
 6-311+G(2d,p)
 ****
 1  2  13  14  15  16  17  18  19  20  21  22  24  25 0
 3-21G
 ****
 27  28  29  32  34  39  40  41  42  43  44  45  46  47  48  49 0
 3-21G
 ****


