%nproc=1
%NoSave
%Mem=1900MB
#P OB98/GEN NMR

erre ene a

0 1
  C     1045.900     236.345    -544.711
  O     1047.064     235.628    -544.355
  H     1046.127     237.068    -545.499
  H     1045.155     235.641    -545.089
  H     1045.494     236.858    -543.837
  P     1048.292     236.482    -543.768
  C     1048.038     235.755    -541.284
  O     1047.906     236.802    -542.241
  C     1049.211     236.061    -540.362
  O     1048.998     237.312    -539.678
  C     1049.430     235.027    -539.260
  O     1050.137     233.886    -539.722
  C     1050.260     235.827    -538.279
  O     1051.621     235.913    -538.747
  C     1049.589     237.205    -538.351
  N     1048.128     239.980    -534.303
  C     1049.240     240.025    -535.076
  N     1049.550     239.245    -536.133
  C     1048.580     238.348    -536.366
  C     1047.404     238.181    -535.660
  C     1047.183     239.051    -534.585
  N     1046.065     239.008    -533.790
  N     1046.671     237.129    -536.185
  C     1047.379     236.701    -537.199
  N     1048.550     237.394    -537.347
  O     1048.139     237.902    -544.482
  O     1049.644     235.886    -543.956
  H     1051.579     236.112    -539.704
  H     1048.990     238.384    -544.456
  H     1049.968     240.779    -534.808
  H     1047.095     235.886    -537.863
  H     1050.303     238.028    -538.235
  H     1050.297     235.388    -537.282
  H     1048.480     234.743    -538.781
  H     1050.115     236.164    -540.974
  H     1048.223     234.813    -541.803
  H     1046.088     239.543    -532.939
  H     1045.424     238.224    -533.904
  H     1047.110     235.678    -540.707
  P     1049.423     232.458    -539.550
  C     1049.158     232.051    -542.111
  O     1048.513     232.260    -540.856
  O     1048.367     232.717    -538.382
  O     1050.359     231.330    -539.234
  H     1048.171     231.884    -537.902
  H     1048.420     231.937    -542.877
  H     1049.758     231.167    -542.061
  H     1049.780     232.892    -542.337

 6  7  8  9  10  11  12  13  14  15  25  28  32  33  34  35 0
 6-311+G(2d,p)
 ****
 36  39  40 0
 6-311+G(2d,p)
 ****
 1  2  3  4  5  16  17  18  19  20  21  22  23  24 0
 3-21G
 ****
 26  27  29  30  31  37  38  41  42  43  44  45  46  47 0
 3-21G
 ****
 48 0
 3-21G
 ****


