%nproc=1
%NoSave
%Mem=1900MB
#P OB98/GEN NMR

erre ene a

0 1
  C       16.735     -71.231      -3.012
  O       17.070     -70.007      -2.391
  H       17.551     -71.940      -2.853
  H       16.606     -71.084      -4.087
  H       15.821     -71.649      -2.582
  P       15.958     -68.857      -2.299
  C       15.148     -69.866      -0.069
  O       14.781     -69.423      -1.369
  C       14.324     -69.128       0.982
  O       12.924     -69.439       0.827
  C       14.674     -69.500       2.419
  O       15.885     -68.889       2.819
  C       13.434     -69.006       3.148
  O       13.497     -67.588       3.361
  C       12.319     -69.364       2.137
  N       11.623     -70.608       2.464
  C       10.772     -70.571       3.564
  O       10.624     -69.571       4.265
  N       10.106     -71.734       3.844
  C       10.270     -72.925       3.196
  O        9.687     -73.955       3.521
  C       11.208     -72.914       2.065
  C       11.830     -71.775       1.755
  O       15.507     -68.284      -3.601
  O       16.643     -67.745      -1.373
  H       12.637     -67.325       3.742
  H       16.995     -67.026      -1.928
  H        9.495     -71.730       4.644
  H       11.367     -73.841       1.532
  H       12.529     -71.749       0.927
  H       11.575     -68.559       2.093
  H       13.312     -69.467       4.129
  H       14.732     -70.590       2.524
  H       14.450     -68.050       0.819
  H       16.212     -69.657       0.087
  H       14.983     -70.945      -0.003
  P       16.742     -69.487       4.029
  C       18.835     -70.245       2.762
  O       17.657     -70.668       3.437
  O       15.958     -69.858       5.243
  O       17.804     -68.337       4.357
  H       17.557     -67.885       5.188
  H       19.370     -71.101       2.408
  H       19.454     -69.691       3.437
  H       18.567     -69.624       1.933

 6  7  8  9  10  11  12  13  14  15  16  26  31  32  33  34  35 0
 6-311+G(2d,p)
 ****
 36  37 0
 6-311+G(2d,p)
 ****
 1  2  3  4  5  17  18  19  20  21  22  23  24  25 0
 3-21G
 ****
 27  28  29  30  38  39  40  41  42  43  44  45 0
 3-21G
 ****


