%nproc=1
%NoSave
%Mem=1900MB
#P OB98/GEN NMR

erre ene a

0 1
  C     -103.675     -10.830     -59.841
  O     -102.462     -10.749     -59.122
  H     -104.146      -9.844     -59.841
  H     -104.357     -11.543     -59.371
  H     -103.483     -11.123     -60.877
  P     -101.631     -12.101     -58.876
  C     -103.156     -12.905     -56.941
  O     -102.713     -13.125     -58.271
  C     -103.937     -14.116     -56.437
  O     -105.055     -14.407     -57.301
  C     -103.141     -15.415     -56.382
  O     -102.215     -15.466     -55.310
  C     -104.276     -16.413     -56.220
  O     -104.757     -16.378     -54.864
  C     -105.329     -15.832     -57.195
  N     -105.291     -16.460     -58.515
  C     -106.322     -17.361     -58.810
  O     -107.204     -17.596     -57.985
  N     -106.309     -18.005     -60.024
  C     -105.344     -17.785     -60.861
  N     -105.354     -18.485     -62.030
  C     -104.249     -16.832     -60.598
  C     -104.280     -16.216     -59.418
  O     -100.368     -11.966     -58.087
  O     -101.404     -12.700     -60.342
  H     -103.975     -16.418     -54.284
  H     -100.882     -13.534     -60.245
  H     -103.464     -16.692     -61.326
  H     -103.500     -15.514     -59.145
  H     -106.339     -15.936     -56.783
  H     -103.979     -17.444     -56.433
  H     -102.642     -15.608     -57.338
  H     -104.352     -13.855     -55.454
  H     -106.097     -19.160     -62.157
  H     -103.778     -12.005     -56.933
  H     -104.517     -18.581     -62.594
  H     -102.298     -12.750     -56.280
  P     -100.926     -16.411     -55.473
  C     -101.776     -18.333     -53.934
  O     -101.427     -17.918     -55.245
  O     -100.080     -16.089     -54.156
  O     -100.135     -16.215     -56.728
  H      -99.414     -15.395     -54.326
  H     -102.087     -19.357     -53.955
  H     -102.577     -17.725     -53.569
  H     -100.928     -18.231     -53.290

 6  7  8  9  10  11  12  13  14  15  16  26  30  31  32  33  35 0
 6-311+G(2d,p)
 ****
 37  38 0
 6-311+G(2d,p)
 ****
 1  2  3  4  5  17  18  19  20  21  22  23  24  25 0
 3-21G
 ****
 27  28  29  34  36  39  40  41  42  43  44  45  46 0
 3-21G
 ****


