%nproc=1
%NoSave
%Mem=1900MB
#P OB98/GEN NMR

erre ene a

0 1
  C      -18.524     917.115    -169.431
  O      -18.802     916.238    -168.357
  H      -17.439     917.273    -169.520
  H      -18.883     916.659    -170.360
  H      -19.028     918.075    -169.288
  P      -18.374     916.743    -166.891
  C      -20.592     917.976    -166.348
  O      -19.201     918.091    -166.620
  C      -20.853     918.104    -164.851
  O      -20.363     919.375    -164.369
  C      -22.327     918.057    -164.452
  O      -22.808     916.718    -164.408
  C      -22.262     918.678    -163.067
  O      -21.803     917.695    -162.119
  C      -21.199     919.767    -163.246
  N      -23.066     924.039    -161.128
  C      -22.497     922.932    -160.589
  N      -22.011     921.843    -161.215
  C      -22.117     921.982    -162.548
  C      -22.645     923.063    -163.243
  C      -23.139     924.133    -162.471
  N      -23.765     925.227    -163.040
  N      -22.597     922.832    -164.610
  C      -22.068     921.628    -164.726
  N      -21.763     921.078    -163.510
  O      -16.863     917.263    -167.125
  O      -18.437     915.705    -165.818
  H      -22.385     916.910    -162.216
  H      -16.243     916.558    -166.863
  H      -22.455     922.918    -159.493
  H      -21.908     921.115    -165.666
  H      -20.539     919.859    -162.367
  H      -23.239     919.036    -162.710
  H      -22.941     918.692    -165.101
  H      -20.284     917.315    -164.348
  H      -20.952     916.999    -166.696
  H      -24.465     925.659    -162.431
  H      -24.028     925.114    -164.018
  H      -21.122     918.763    -166.902
  P      -24.381     916.491    -164.628
  C      -24.346     916.932    -167.175
  O      -24.803     917.371    -165.906
  O      -25.037     917.281    -163.384
  O      -24.822     915.059    -164.648
  H      -25.598     916.677    -162.870
  H      -24.696     917.603    -167.932
  H      -24.721     915.949    -167.369
  H      -23.276     916.913    -167.182

 6  7  8  9  10  11  12  13  14  15  25  28  32  33  34  35 0
 6-311+G(2d,p)
 ****
 36  39  40 0
 6-311+G(2d,p)
 ****
 1  2  3  4  5  16  17  18  19  20  21  22  23  24 0
 3-21G
 ****
 26  27  29  30  31  37  38  41  42  43  44  45  46  47  48 0
 3-21G
 ****


