%nproc=1
%NoSave
%Mem=1900MB
#P OB98/GEN NMR

erre ene a

0 1
  C      702.100    -755.600    -152.429
  O      701.304    -754.456    -152.184
  H      701.581    -756.242    -153.146
  H      702.222    -756.153    -151.495
  H      703.076    -755.321    -152.833
  P      702.017    -753.206    -151.483
  C      701.225    -750.728    -151.575
  O      700.886    -752.078    -151.286
  C      699.982    -749.843    -151.527
  O      699.285    -749.954    -152.808
  C      698.987    -750.217    -150.422
  O      698.406    -749.015    -149.893
  C      697.912    -750.974    -151.173
  O      696.663    -750.966    -150.489
  C      697.901    -750.217    -152.493
  N      693.424    -751.112    -154.582
  C      693.813    -750.157    -153.669
  N      692.852    -749.335    -153.192
  N      695.051    -750.003    -153.261
  C      695.914    -750.874    -153.834
  C      695.655    -751.875    -154.739
  C      694.278    -752.040    -155.176
  O      693.872    -752.894    -155.961
  N      696.796    -752.584    -155.032
  C      697.734    -752.028    -154.284
  N      697.241    -750.991    -153.538
  O      702.934    -752.616    -152.660
  O      702.817    -753.526    -150.264
  H      696.825    -751.199    -149.555
  H      703.836    -752.979    -152.589
  H      692.457    -751.201    -154.846
  H      698.764    -752.346    -154.231
  H      697.373    -749.256    -152.427
  H      698.215    -752.011    -151.315
  H      691.884    -749.365    -153.478
  H      699.424    -750.799    -149.604
  H      693.132    -748.596    -152.558
  H      700.301    -748.799    -151.424
  H      701.668    -750.676    -152.582
  H      701.970    -750.381    -150.849
  P      698.790    -748.573    -148.404
  C      699.682    -746.275    -147.540
  O      698.693    -746.977    -148.298
  O      700.365    -748.856    -148.334
  O      698.062    -749.326    -147.340
  H      700.613    -749.144    -147.442
  H      699.475    -745.226    -147.569
  H      700.649    -746.460    -147.958
  H      699.661    -746.615    -146.526

 6  7  8  9  10  11  12  13  14  15  26  29  33  34 0
 6-311+G(2d,p)
 ****
 36  38  39  40  41 0
 6-311+G(2d,p)
 ****
 1  2  3  4  5  16  17  18  19  20  21  22  23  24  25 0
 3-21G
 ****
 27  28  30  31  32  35  37  42  43  44  45  46  47 0
 3-21G
 ****
 48  49 0
 3-21G
 ****


