%nproc=1
%NoSave
%Mem=1900MB
#P OB98/GEN NMR

erre ene a

0 1
  C        9.459      42.053     -62.582
  O        9.565      42.692     -61.325
  H       10.303      42.338     -63.214
  H        9.481      40.971     -62.428
  H        8.518      42.321     -63.072
  P        9.376      44.285     -61.307
  C        8.254      44.257     -58.963
  O        9.344      44.703     -59.756
  C        8.453      42.798     -58.554
  O        9.795      42.640     -58.022
  C        7.469      42.324     -57.480
  O        7.089      40.976     -57.763
  C        8.289      42.373     -56.202
  O        7.796      41.480     -55.210
  C        9.681      42.027     -56.723
  N       13.859      40.703     -54.106
  C       13.088      40.022     -54.980
  N       11.992      40.452     -55.640
  C       11.746      41.744     -55.358
  C       12.441      42.565     -54.488
  C       13.544      41.992     -53.833
  N       14.313      42.666     -52.913
  N       11.859      43.818     -54.436
  C       10.833      43.750     -55.262
  N       10.723      42.516     -55.838
  O        7.851      44.454     -61.773
  O       10.314      45.060     -62.168
  H        6.827      41.605     -55.138
  H        7.797      44.368     -62.743
  H       13.386      38.995     -55.170
  H       10.142      44.555     -55.469
  H        9.831      40.946     -56.835
  H        8.268      43.388     -55.789
  H        6.576      42.948     -57.419
  H        8.393      42.171     -59.451
  H        7.330      44.351     -59.543
  H       15.050      42.161     -52.450
  H       14.056      43.607     -52.651
  H        8.178      44.884     -58.068
  P        5.874      40.768     -58.792
  C        6.720      38.624     -59.977
  O        5.745      39.203     -59.121
  O        6.429      41.400     -60.153
  O        4.607      41.432     -58.360
  H        5.774      42.018     -60.526
  H        6.509      37.583     -60.106
  H        7.691      38.740     -59.542
  H        6.695      39.113     -60.928

 6  7  8  9  10  11  12  13  14  15  25  28  32  33  34  35 0
 6-311+G(2d,p)
 ****
 36  39  40 0
 6-311+G(2d,p)
 ****
 1  2  3  4  5  16  17  18  19  20  21  22  23  24 0
 3-21G
 ****
 26  27  29  30  31  37  38  41  42  43  44  45  46  47 0
 3-21G
 ****
 48 0
 3-21G
 ****


