%nproc=1
%NoSave
%Mem=1900MB
#P OB98/GEN NMR

erre ene a

0 1
  C     -842.879    -287.370     384.158
  O     -841.565    -287.695     383.737
  P     -840.335    -286.715     384.061
  C     -838.910    -288.328     382.620
  O     -839.268    -286.980     382.881
  C     -838.534    -288.491     381.144
  O     -839.594    -287.973     380.324
  C     -837.279    -287.748     380.737
  O     -836.108    -288.424     381.167
  C     -837.468    -287.681     379.218
  O     -837.091    -288.924     378.613
  C     -838.999    -287.467     379.097
  N     -839.370    -286.076     378.871
  C     -839.070    -285.558     377.598
  O     -838.544    -286.259     376.739
  N     -839.419    -284.257     377.330
  C     -840.000    -283.531     378.239
  N     -840.392    -282.274     377.888
  C     -840.278    -284.026     379.601
  C     -839.940    -285.293     379.838
  O     -839.778    -286.839     385.442
  O     -840.874    -285.244     383.719
  H     -836.129    -288.957     378.611
  H     -841.329    -284.815     384.480
  H     -840.744    -283.376     380.337
  H     -840.137    -285.736     380.817
  H     -839.401    -288.096     378.281
  H     -836.884    -286.882     378.731
  H     -837.287    -286.729     381.145
  H     -838.424    -289.570     380.932
  H     -840.345    -282.040     376.906
  H     -839.766    -288.976     382.851
  H     -841.083    -281.767     378.426
  H     -838.075    -288.621     383.274
  P     -834.915    -287.522     381.750
  C     -833.205    -289.363     381.084
  O     -833.584    -287.999     380.983
  O     -834.734    -288.101     383.237
  O     -835.173    -286.044     381.748
  H     -835.145    -287.484     383.898
  H     -832.440    -289.567     380.319
  H     -834.058    -290.011     380.909
  H     -832.768    -289.551     382.068
  H     -843.553    -288.141     383.850
  H     -843.175    -286.441     383.718
  H     -842.901    -287.283     385.224

 3  4  5  6  7  8  9  10  11  12  13  23  27  28  29  30  32 0
 6-311+G(2d,p)
 ****
 34  35 0
 6-311+G(2d,p)
 ****
 1  2  14  15  16  17  18  19  20  21  22  24  25  26 0
 3-21G
 ****
 31  33  36  37  38  39  40  41  42  43  44  45  46 0
 3-21G
 ****


