%nproc=1
%NoSave
%Mem=1900MB
#P OB98/GEN NMR

erre ene a

0 1
  C     -892.198    -548.386     522.076
  O     -893.528    -547.915     522.017
  H     -892.068    -549.179     521.342
  H     -891.998    -548.791     523.072
  H     -891.488    -547.580     521.849
  P     -893.888    -546.596     522.847
  C     -894.258    -548.072     524.955
  O     -894.778    -547.062     524.094
  C     -895.118    -548.177     526.218
  O     -895.028    -546.905     526.925
  C     -896.608    -548.452     525.945
  O     -897.098    -549.298     526.987
  C     -897.238    -547.078     526.074
  O     -898.628    -547.116     526.383
  C     -896.388    -546.466     527.197
  N     -896.478    -545.008     527.235
  C     -896.768    -544.416     528.456
  O     -896.868    -545.026     529.522
  N     -896.938    -543.054     528.427
  C     -896.878    -542.260     527.325
  O     -897.058    -541.056     527.356
  C     -896.578    -542.946     526.049
  C     -896.388    -544.271     526.070
  O     -894.938    -545.844     521.894
  O     -892.718    -545.733     523.203
  H     -894.478    -545.248     521.277
  H     -898.738    -547.580     527.235
  H     -897.148    -542.615     529.310
  H     -896.528    -542.341     525.158
  H     -896.198    -544.800     525.148
  H     -896.678    -546.885     528.161
  H     -897.118    -546.515     525.137
  H     -896.798    -548.913     524.968
  H     -894.688    -548.940     526.876
  H     -893.228    -547.814     525.234
  H     -894.258    -549.031     524.418
  P     -896.758    -550.868     526.891
  C     -899.118    -551.303     525.808
  O     -898.178    -551.614     526.844
  O     -896.208    -551.148     528.360
  O     -895.828    -551.188     525.776
  H     -896.648    -550.641     529.044
  H     -900.000    -551.894     525.938
  H     -898.682    -551.518     524.855
  H     -899.373    -550.265     525.858

 6  7  8  9  10  11  12  13  14  15  16  27  31  32  33  34  35 0
 6-311+G(2d,p)
 ****
 36  37 0
 6-311+G(2d,p)
 ****
 1  2  3  4  5  17  18  19  20  21  22  23  24  25 0
 3-21G
 ****
 26  28  29  30  38  39  40  41  42  43  44  45 0
 3-21G
 ****


