%nproc=1
%NoSave
%Mem=1900MB
#P OB98/GEN NMR

erre ene a

0 1
  C      545.868     377.947    -705.596
  O      545.461     378.280    -706.918
  P      546.559     378.164    -708.087
  C      546.300     377.966    -710.667
  O      545.766     377.651    -709.382
  C      545.357     377.492    -711.766
  O      545.353     376.048    -711.835
  C      543.901     377.889    -711.578
  O      543.645     379.224    -712.008
  C      543.205     376.905    -712.490
  O      543.302     377.338    -713.859
  C      544.041     375.628    -712.280
  N      540.930     371.620    -711.584
  C      541.243     372.336    -712.689
  N      542.066     373.405    -712.791
  C      542.569     373.731    -711.587
  C      542.309     373.113    -710.371
  C      541.456     372.000    -710.394
  N      541.164     371.247    -709.277
  N      543.010     373.730    -709.353
  C      543.684     374.695    -709.943
  N      543.463     374.733    -711.296
  O      547.418     376.883    -707.650
  O      547.408     379.376    -708.273
  H      543.081     376.566    -714.420
  H      548.302     376.924    -708.050
  H      540.766     372.017    -713.610
  H      544.356     375.391    -709.443
  H      544.167     375.055    -713.202
  H      542.136     376.791    -712.273
  H      543.578     377.725    -710.543
  H      545.739     377.880    -712.728
  H      547.265     377.472    -710.785
  H      540.693     370.370    -709.415
  H      541.712     371.407    -708.441
  H      546.443     379.053    -710.727
  P      542.137     379.758    -711.859
  C      541.069     382.102    -712.215
  O      542.239     381.350    -711.957
  O      541.805     379.480    -710.319
  O      541.162     379.093    -712.779
  H      540.837     379.385    -710.192
  H      541.245     383.139    -711.941
  H      540.223     381.724    -711.616
  H      540.808     382.045    -713.283
  H      545.042     378.069    -704.927
  H      546.668     378.591    -705.296
  H      546.200     376.930    -705.571

 3  4  5  6  7  8  9  10  11  12  22  25  29  30  31  32 0
 6-311+G(2d,p)
 ****
 33  36  37 0
 6-311+G(2d,p)
 ****
 1  2  13  14  15  16  17  18  19  20  21  23  24  26 0
 3-21G
 ****
 27  28  34  35  38  39  40  41  42  43  44  45  46  47  48 0
 3-21G
 ****


