%nproc=1
%NoSave
%Mem=1900MB
#P OB98/GEN NMR

erre ene a

0 1
  C      845.091    -214.279    -709.560
  O      844.935    -215.487    -708.851
  H      845.985    -214.362    -710.194
  H      845.238    -213.453    -708.860
  H      844.227    -214.080    -710.196
  P      843.515    -215.819    -708.194
  C      844.408    -218.232    -707.974
  O      843.664    -217.190    -707.367
  C      844.912    -219.259    -706.949
  O      845.982    -218.710    -706.165
  C      843.805    -219.645    -705.947
  O      842.921    -220.666    -706.386
  C      844.630    -220.121    -704.752
  O      845.012    -221.496    -704.894
  C      845.874    -219.208    -704.817
  N      848.492    -215.854    -701.995
  C      848.967    -216.878    -702.810
  N      850.312    -217.065    -702.807
  N      848.195    -217.648    -703.523
  C      846.874    -217.414    -703.352
  C      846.295    -216.436    -702.565
  C      847.161    -215.549    -701.820
  O      846.790    -214.637    -701.086
  N      844.910    -216.494    -702.634
  C      844.674    -217.554    -703.391
  N      845.835    -218.120    -703.875
  O      842.618    -216.269    -709.451
  O      842.866    -214.689    -707.453
  H      845.555    -221.745    -704.127
  H      841.675    -216.101    -709.263
  H      849.137    -215.268    -701.509
  H      843.685    -217.919    -703.650
  H      846.788    -219.778    -704.631
  H      844.066    -220.032    -703.819
  H      850.935    -216.565    -702.192
  H      843.231    -218.764    -705.645
  H      850.672    -217.951    -703.163
  H      845.302    -220.138    -707.474
  H      845.263    -217.765    -708.476
  H      843.817    -218.721    -708.747
  P      841.371    -220.349    -706.582
  C      841.458    -221.531    -708.893
  O      840.801    -221.396    -707.657
  O      841.379    -218.958    -707.380
  O      840.578    -220.248    -705.322
  H      841.277    -218.208    -706.760
  H      840.953    -222.264    -709.487
  H      842.469    -221.840    -708.728
  H      841.452    -220.591    -709.405

 6  7  8  9  10  11  12  13  14  15  26  29  33  34 0
 6-311+G(2d,p)
 ****
 36  38  39  40  41 0
 6-311+G(2d,p)
 ****
 1  2  3  4  5  16  17  18  19  20  21  22  23  24  25 0
 3-21G
 ****
 27  28  30  31  32  35  37  42  43  44  45  46  47 0
 3-21G
 ****
 48  49 0
 3-21G
 ****


