%nproc=1
%NoSave
%Mem=1900MB
#P OB98/GEN NMR

erre ene a

0 1
  C      533.293    -344.331      31.674
  O      533.535    -343.375      30.646
  P      532.857    -343.630      29.216
  C      530.631    -342.468      29.963
  O      531.271    -343.603      29.418
  C      529.122    -342.467      29.636
  O      528.961    -342.208      28.224
  C      528.403    -343.787      29.892
  O      526.997    -343.537      29.966
  C      528.716    -344.558      28.631
  O      527.820    -345.661      28.448
  C      528.653    -343.461      27.550
  N      529.597    -343.678      26.428
  C      529.483    -344.852      25.687
  O      528.647    -345.722      25.904
  N      530.406    -345.022      24.690
  C      531.381    -344.134      24.336
  O      532.232    -344.376      23.491
  C      531.364    -342.857      25.059
  C      530.496    -342.691      26.056
  O      533.188    -345.169      28.911
  O      533.358    -342.726      28.142
  H      527.982    -346.000      27.545
  H      533.893    -345.232      28.236
  H      530.378    -345.895      24.185
  H      532.080    -342.097      24.759
  H      530.487    -341.755      26.621
  H      527.647    -343.387      27.115
  H      529.729    -344.970      28.693
  H      528.737    -344.316      30.793
  H      528.642    -341.650      30.179
  H      531.100    -341.559      29.577
  H      530.768    -342.451      31.047
  P      526.406    -342.970      31.343
  C      525.534    -340.810      30.257
  O      526.405    -341.374      31.218
  O      527.005    -343.533      32.591
  O      524.841    -343.330      31.229
  H      524.439    -343.313      32.116
  H      525.231    -339.819      30.590
  H      524.643    -341.430      30.114
  H      526.065    -340.721      29.302
  H      533.804    -344.033      32.565
  H      533.651    -345.290      31.361
  H      532.242    -344.388      31.868

 3  4  5  6  7  8  9  10  11  12  13  23  28  29  30  31  32 0
 6-311+G(2d,p)
 ****
 33  34 0
 6-311+G(2d,p)
 ****
 1  2  14  15  16  17  18  19  20  21  22  24  25  26  27 0
 3-21G
 ****
 35  36  37  38  39  40  41  42  43  44  45 0
 3-21G
 ****


