%nproc=1
%NoSave
%Mem=1900MB
#P OB98/GEN NMR

erre ene a

0 1
  C      197.389      57.164    1592.742
  O      197.286      57.968    1593.935
  P      195.890      58.412    1594.562
  C      195.136      56.875    1596.504
  O      195.112      57.110    1595.103
  C      193.702      56.796    1597.091
  O      193.048      58.077    1596.997
  C      192.782      55.818    1596.378
  O      193.096      54.475    1596.739
  C      191.424      56.305    1596.854
  O      191.101      55.797    1598.156
  C      191.629      57.839    1596.897
  N      191.051      58.512    1595.744
  C      189.725      58.954    1595.877
  O      189.088      58.701    1596.893
  N      189.157      59.643    1594.822
  C      189.829      59.807    1593.737
  N      189.212      60.507    1592.729
  C      191.195      59.284    1593.524
  C      191.757      58.666    1594.561
  O      195.055      59.294    1593.667
  O      196.253      59.188    1595.918
  H      191.845      56.068    1598.736
  H      195.572      59.871    1596.080
  H      191.699      59.420    1592.572
  H      192.749      58.260    1594.503
  H      191.193      58.254    1597.816
  H      190.596      55.997    1596.179
  H      192.865      55.943    1595.272
  H      193.795      56.544    1598.154
  H      188.278      60.841    1592.911
  H      195.661      57.700    1596.980
  H      189.647      60.704    1591.833
  H      195.686      55.960    1596.702
  P      194.081      53.597    1595.817
  C      195.434      52.998    1597.927
  O      195.482      53.493    1596.584
  O      194.178      54.049    1594.381
  O      193.494      52.114    1595.909
  H      193.664      51.659    1595.068
  H      196.405      52.585    1598.183
  H      194.662      52.226    1598.018
  H      195.203      53.839    1598.593
  H      198.421      56.994    1592.514
  H      196.923      57.675    1591.926
  H      196.900      56.226    1592.901

 3  4  5  6  7  8  9  10  11  12  13  23  27  28  29  30  32 0
 6-311+G(2d,p)
 ****
 34  35 0
 6-311+G(2d,p)
 ****
 1  2  14  15  16  17  18  19  20  21  22  24  25  26 0
 3-21G
 ****
 31  33  36  37  38  39  40  41  42  43  44  45  46 0
 3-21G
 ****


