%nproc=1
%NoSave
%Mem=1900MB
#P OB98/GEN NMR

erre ene a

0 1
  C     -899.246     169.458      92.541
  O     -897.986     169.651      93.183
  P     -897.866     169.192      94.725
  C     -896.736     166.923      94.067
  O     -897.806     167.590      94.725
  C     -895.716     166.438      95.105
  O     -896.356     165.578      96.064
  C     -894.586     165.608      94.489
  O     -893.606     166.435      93.879
  C     -894.076     164.856      95.710
  O     -893.156     165.659      96.464
  C     -895.376     164.622      96.509
  N     -895.866     163.240      96.397
  C     -895.826     162.476      97.546
  O     -895.386     162.898      98.616
  N     -896.266     161.181      97.431
  C     -896.686     160.576      96.274
  O     -897.016     159.399      96.228
  C     -896.676     161.426      95.071
  C     -896.256     162.697      95.181
  O     -899.306     169.521      95.339
  O     -896.776     169.861      95.474
  H     -892.406     165.853      95.864
  H     -899.206     169.817      96.264
  H     -896.266     160.623      98.260
  H     -897.006     160.987      94.140
  H     -896.246     163.342      94.309
  H     -895.206     164.829      97.568
  H     -893.546     163.935      95.427
  H     -895.006     164.891      93.766
  H     -895.316     167.315      95.623
  H     -896.256     167.626      93.380
  H     -897.126     166.093      93.482
  P     -892.756     165.792      92.680
  C     -894.646     166.490      91.007
  O     -893.826     165.468      91.539
  O     -892.366     164.371      93.322
  O     -891.586     166.641      92.273
  H     -893.076     164.037      93.916
  H     -894.116     167.440      90.961
  H     -895.536     166.605      91.654
  H     -894.956     166.209      90.005
  H     -899.187     169.803      91.530
  H     -900.000     170.009      93.063
  H     -899.495     168.417      92.549

 3  4  5  6  7  8  9  10  11  12  13  23  28  29  30  31  32 0
 6-311+G(2d,p)
 ****
 33  34 0
 6-311+G(2d,p)
 ****
 1  2  14  15  16  17  18  19  20  21  22  24  25  26 0
 3-21G
 ****
 27  35  36  37  38  39  40  41  42  43  44  45 0
 3-21G
 ****


