%nproc=1
%NoSave
%Mem=1900MB
#P OB98/GEN NMR

erre ene a

0 1
  C      171.236    -168.296     282.713
  O      171.412    -166.986     283.217
  H      172.083    -168.909     283.027
  H      171.200    -168.276     281.621
  H      170.316    -168.734     283.108
  P      170.255    -165.926     282.882
  C      171.587    -163.799     282.200
  O      170.859    -164.477     283.214
  C      171.967    -162.405     282.684
  O      170.786    -161.568     282.731
  C      172.541    -162.373     284.091
  O      173.901    -162.774     284.129
  C      172.324    -160.916     284.468
  O      173.375    -160.082     283.960
  C      171.001    -160.587     283.772
  N      168.307    -157.743     287.049
  C      169.313    -157.435     286.203
  N      169.973    -158.250     285.353
  C      169.469    -159.497     285.408
  C      168.445    -159.957     286.216
  C      167.845    -159.018     287.068
  N      166.838    -159.333     287.948
  N      168.242    -161.308     286.019
  C      169.120    -161.657     285.103
  N      169.883    -160.594     284.699
  O      169.188    -166.173     284.051
  O      169.641    -166.065     281.529
  H      174.209    -160.450     284.311
  H      168.460    -166.727     283.713
  H      169.643    -156.400     286.221
  H      169.249    -162.657     284.704
  H      171.015    -159.599     283.293
  H      172.297    -160.794     285.550
  H      171.937    -163.003     284.760
  H      172.670    -161.963     281.963
  H      170.966    -163.714     281.301
  H      172.483    -164.380     281.956
  H      166.502    -158.625     288.579
  H      166.564    -160.304     288.053
  P      174.228    -164.269     284.600
  C      175.813    -163.695     286.584
  O      175.673    -164.248     285.283
  O      174.468    -165.058     283.224
  O      173.160    -164.907     285.424
  H      174.131    -165.971     283.302
  H      176.836    -163.759     286.891
  H      175.200    -164.240     287.271
  H      175.508    -162.669     286.570

 6  7  8  9  10  11  12  13  14  15  25  28  32  33  34  35 0
 6-311+G(2d,p)
 ****
 36  37  40 0
 6-311+G(2d,p)
 ****
 1  2  3  4  5  16  17  18  19  20  21  22  23  24 0
 3-21G
 ****
 26  27  29  30  31  38  39 41  42  43  44  45  46  47  48 0
 3-21G
 ****


