%nproc=1
%NoSave
%Mem=1900MB
#P OB98/GEN NMR

erre ene a

0 1
  C       70.732     -14.825      84.706
  O       70.133     -16.064      85.011
  P       69.041     -16.708      84.030
  C       66.668     -16.463      84.991
  O       67.700     -15.848      84.223
  C       67.020     -16.420      86.476
  O       67.425     -15.085      86.879
  C       65.859     -16.754      87.401
  O       65.354     -18.070      87.360
  C       66.390     -16.256      88.735
  O       67.270     -17.206      89.333
  C       67.169     -14.988      88.303
  N       66.451     -13.763      88.645
  C       66.329     -13.485      90.003
  O       66.785     -14.208      90.889
  N       65.631     -12.354      90.322
  C       65.014     -11.516      89.436
  O       64.367     -10.540      89.796
  C       65.166     -11.867      88.019
  C       65.865     -12.957      87.689
  O       68.859     -18.183      84.162
  O       69.535     -16.241      82.578
  H       66.720     -17.905      89.735
  H       69.576     -15.276      82.452
  H       65.518     -12.142      91.300
  H       64.700     -11.217      87.290
  H       65.988     -13.238      86.647
  H       68.151     -14.961      88.794
  H       65.580     -16.070      89.452
  H       65.012     -16.106      87.131
  H       67.874     -17.081      86.644
  H       66.564     -17.506      84.679
  H       65.716     -15.955      84.791
  P       64.000     -18.520      88.088
  C       63.852     -20.199      90.057
  O       64.357     -18.969      89.585
  O       63.076     -19.396      87.308
  O       63.284     -17.099      88.336
  H       62.318     -17.222      88.303
  H       64.154     -20.324      91.103
  H       64.261     -21.029      89.475
  H       62.759     -20.210      90.008
  H       71.428     -14.566      85.476
  H       69.976     -14.070      84.640
  H       71.246     -14.898      83.770

 3  4  5  6  7  8  9  10  11  12  13  23  28  29  30  31  32 0
 6-311+G(2d,p)
 ****
 33  34 0
 6-311+G(2d,p)
 ****
 1  2  14  15  16  17  18  19  20  21  22  24  25  26  27 0
 3-21G
 ****
 35  36  37  38  39  40  41  42  43  44  45 0
 3-21G
 ****


