%nproc=1
%NoSave
%Mem=1900MB
#P OB98/GEN NMR

erre ene a

0 1
  C       89.098     245.970      61.945
  O       88.794     244.655      61.522
  H       89.649     246.476      61.149
  H       89.722     245.937      62.842
  H       88.179     246.527      62.149
  P       87.828     243.795      62.474
  C       85.567     244.964      61.830
  O       86.579     244.747      62.797
  C       84.196     245.066      62.500
  O       84.197     246.211      63.390
  C       83.041     245.245      61.512
  O       81.901     244.549      62.019
  C       82.775     246.740      61.553
  O       81.451     247.062      61.135
  C       83.093     247.062      63.021
  N       83.409     248.474      63.228
  C       82.334     249.323      63.507
  O       81.187     248.877      63.556
  N       82.574     250.661      63.681
  C       83.775     251.126      63.525
  N       83.943     252.465      63.687
  C       84.931     250.274      63.186
  C       84.681     248.971      63.063
  O       88.655     243.774      63.845
  O       87.482     242.445      61.943
  H       81.301     248.021      61.283
  H       89.029     244.638      64.084
  H       85.911     250.708      63.056
  H       85.472     248.271      62.824
  H       82.243     246.802      63.665
  H       83.473     247.265      60.890
  H       83.281     244.883      60.511
  H       84.046     244.178      63.124
  H       83.119     253.016      63.896
  H       85.555     244.147      61.102
  H       84.819     252.943      63.535
  H       85.801     245.891      61.298
  P       81.073     243.581      61.050
  C       81.433     241.260      62.136
  O       81.748     242.126      61.051
  O       80.752     244.131      59.702
  O       79.719     243.327      61.881
  H       78.974     243.347      61.249
  H       81.947     240.330      62.011
  H       80.378     241.084      62.157
  H       81.737     241.715      63.055

 6  7  8  9  10  11  12  13  14  15  16  26  30  31  32  33  35 0
 6-311+G(2d,p)
 ****
 37  38 0
 6-311+G(2d,p)
 ****
 1  2  3  4  5  17  18  19  20  21  22  23  24  25 0
 3-21G
 ****
 27  28  29  34  36  39  40  41  42  43  44  45  46 0
 3-21G
 ****


