%nproc=1
%NoSave
%Mem=1900MB
#P OB98/GEN NMR

erre ene a

0 1
  C     -538.844     -27.222    -410.588
  O     -538.181     -26.363    -411.503
  P     -537.901     -26.955    -412.975
  C     -535.995     -25.208    -413.387
  O     -536.383     -26.574    -413.330
  C     -534.495     -25.107    -413.657
  O     -533.745     -25.449    -412.482
  C     -534.007     -26.037    -414.768
  O     -534.255     -25.474    -416.039
  C     -532.520     -26.157    -414.423
  O     -531.789     -25.014    -414.910
  C     -532.550     -26.176    -412.886
  N     -529.865     -29.567    -410.274
  C     -529.475     -28.374    -410.828
  N     -528.195     -27.998    -410.622
  N     -530.268     -27.596    -411.526
  C     -531.520     -28.104    -411.666
  C     -532.017     -29.283    -411.174
  C     -531.146     -30.105    -410.363
  O     -531.469     -31.122    -409.761
  N     -533.324     -29.472    -411.545
  C     -533.620     -28.378    -412.227
  N     -532.568     -27.513    -412.315
  O     -538.775     -26.002    -413.911
  O     -538.226     -28.404    -413.151
  H     -531.830     -24.995    -415.883
  H     -539.621     -26.432    -414.141
  H     -529.213     -30.108    -409.729
  H     -534.586     -28.167    -412.653
  H     -531.689     -25.651    -412.456
  H     -532.061     -27.034    -414.881
  H     -527.518     -28.551    -410.117
  H     -534.480     -27.021    -414.678
  H     -527.890     -27.123    -411.028
  H     -534.270     -24.058    -413.908
  H     -536.219     -24.736    -412.416
  H     -536.575     -24.704    -414.169
  P     -534.242     -26.457    -417.304
  C     -533.053     -24.595    -418.665
  O     -533.079     -25.956    -418.279
  O     -535.594     -26.083    -418.077
  O     -534.199     -27.904    -416.956
  H     -535.974     -26.890    -418.473
  H     -532.016     -24.300    -418.858
  H     -533.475     -23.946    -417.894
  H     -533.628     -24.473    -419.591
  H     -538.971     -26.718    -409.653
  H     -538.259     -28.106    -410.440
  H     -539.802     -27.490    -410.981

 3  4  5  6  7  8  9  10  11  12  23  26  30  31 0
 6-311+G(2d,p)
 ****
 33  35  36  37  38 0
 6-311+G(2d,p)
 ****
 1  2  13  14  15  16  17  18  19  20  21  22  24  25 0
 3-21G
 ****
 27  28  29  32  34  39  40  41  42  43  44  45  46  47  48  49 0
 3-21G
 ****


