%nproc=1
%NoSave
%Mem=1900MB
#P OB98/GEN NMR

erre ene a

0 1
  C      369.583    -262.019     148.957
  O      368.713    -263.092     149.252
  H      370.471    -262.413     148.455
  H      369.893    -261.527     149.884
  H      369.094    -261.297     148.299
  P      367.299    -262.720     149.914
  C      368.161    -263.134     152.326
  O      367.619    -262.201     151.401
  C      368.190    -262.545     153.735
  O      369.185    -261.475     153.775
  C      366.854    -261.947     154.201
  O      366.727    -262.184     155.607
  C      367.057    -260.456     153.986
  O      366.177    -259.664     154.782
  C      368.534    -260.329     154.360
  N      368.924    -255.408     155.339
  C      368.306    -256.422     156.053
  N      367.697    -256.066     157.202
  N      368.289    -257.667     155.666
  C      368.967    -257.884     154.511
  C      369.615    -256.974     153.712
  C      369.603    -255.588     154.135
  O      370.117    -254.648     153.538
  N      370.155    -257.582     152.609
  C      369.835    -258.859     152.740
  N      369.113    -259.089     153.881
  O      366.635    -264.156     150.151
  O      366.425    -261.826     149.100
  H      366.309    -259.915     155.719
  H      366.067    -264.395     149.393
  H      368.900    -254.462     155.672
  H      370.098    -259.644     152.049
  H      368.695    -260.356     155.444
  H      366.895    -260.197     152.933
  H      367.712    -255.133     157.583
  H      365.976    -262.341     153.676
  H      367.278    -256.800     157.760
  H      368.535    -263.319     154.427
  H      369.183    -263.385     152.019
  H      367.552    -264.046     152.315
  P      365.823    -263.416     156.085
  C      363.502    -262.311     155.686
  O      364.416    -263.329     155.316
  O      365.428    -263.008     157.584
  O      366.509    -264.738     156.034
  H      365.270    -263.811     158.115
  H      362.620    -262.388     155.085
  H      363.954    -261.353     155.535
  H      363.242    -262.423     156.718

 6  7  8  9  10  11  12  13  14  15  26  29  33  34 0
 6-311+G(2d,p)
 ****
 36  38  39  40  41 0
 6-311+G(2d,p)
 ****
 1  2  3  4  5  16  17  18  19  20  21  22  23  24  25 0
 3-21G
 ****
 27  28  30  31  32  35  37  42  43  44  45  46  47 0
 3-21G
 ****
 48  49 0
 3-21G
 ****


