%nproc=1
%NoSave
%Mem=1900MB
#P OB98/GEN NMR

erre ene a

0 1
  C     -253.804     589.783    -270.794
  O     -254.078     591.093    -270.357
  H     -254.312     589.074    -270.131
  H     -252.725     589.588    -270.745
  H     -254.162     589.629    -271.814
  P     -253.449     592.290    -271.230
  C     -251.755     594.206    -270.725
  O     -252.301     592.952    -270.321
  C     -250.391     594.409    -270.087
  O     -250.522     594.365    -268.647
  C     -249.374     593.335    -270.439
  O     -248.803     593.544    -271.723
  C     -248.366     593.489    -269.302
  O     -247.430     594.538    -269.558
  C     -249.263     593.867    -268.115
  N     -247.691     591.505    -263.877
  C     -247.287     592.647    -264.478
  N     -247.774     593.215    -265.604
  C     -248.791     592.493    -266.103
  C     -249.310     591.307    -265.605
  C     -248.710     590.813    -264.428
  N     -249.096     589.628    -263.836
  N     -250.312     590.832    -266.418
  C     -250.416     591.720    -267.383
  N     -249.514     592.741    -267.235
  O     -254.617     593.392    -271.225
  O     -253.034     591.919    -272.617
  H     -247.916     595.380    -269.438
  H     -255.160     593.294    -272.033
  H     -246.466     593.172    -264.001
  H     -251.107     591.668    -268.219
  H     -248.833     594.666    -267.508
  H     -247.797     592.567    -269.147
  H     -249.830     592.335    -270.382
  H     -250.020     595.406    -270.361
  H     -252.432     595.008    -270.399
  H     -251.682     594.228    -271.826
  H     -248.610     589.320    -263.010
  H     -249.782     589.054    -264.301
  P     -248.731     592.305    -272.737
  C     -247.152     590.250    -273.050
  O     -247.607     591.295    -272.193
  O     -248.066     592.936    -274.056
  O     -250.050     591.657    -273.036
  H     -248.746     593.134    -274.712
  H     -246.410     589.670    -272.542
  H     -246.729     590.674    -273.936
  H     -247.976     589.621    -273.314

 6  7  8  9  10  11  12  13  14  15  25  28  32  33  34  35 0
 6-311+G(2d,p)
 ****
 36  37  40 0
 6-311+G(2d,p)
 ****
 1  2  3  4  5  16  17  18  19  20  21  22  23  24 0
 3-21G
 ****
 26  27  29  30  31  38  39 41  42  43  44  45  46  47  48 0
 3-21G
 ****


