%nproc=1
%NoSave
%Mem=1900MB
#P OB98/GEN NMR

erre ene a

0 1
  C     -206.542     707.388    -356.729
  O     -205.956     707.987    -357.868
  H     -206.078     706.414    -356.573
  H     -207.615     707.245    -356.880
  H     -206.368     708.005    -355.842
  P     -206.496     709.421    -358.341
  C     -204.332     710.585    -359.134
  O     -205.516     709.901    -359.522
  C     -203.598     711.104    -360.369
  O     -203.106     710.006    -361.161
  C     -204.458     711.951    -361.302
  O     -204.556     713.286    -360.821
  C     -203.661     711.853    -362.591
  O     -202.509     712.719    -362.515
  C     -203.214     710.373    -362.564
  N     -205.751     709.311    -366.829
  C     -205.034     710.441    -366.486
  N     -205.015     711.435    -367.396
  N     -204.397     710.584    -365.353
  C     -204.566     709.535    -364.505
  C     -205.273     708.376    -364.723
  C     -205.913     708.194    -366.009
  O     -206.538     707.204    -366.369
  N     -205.294     707.582    -363.603
  C     -204.553     708.242    -362.723
  N     -204.105     709.440    -363.220
  O     -206.695     710.441    -357.261
  O     -207.861     709.091    -359.112
  H     -202.842     713.637    -362.463
  H     -208.627     709.134    -358.508
  H     -206.234     709.261    -367.716
  H     -204.324     707.898    -361.728
  H     -202.218     710.243    -363.011
  H     -204.233     712.150    -363.468
  H     -205.598     711.443    -368.222
  H     -205.448     711.501    -361.462
  H     -204.529     712.294    -367.140
  H     -202.720     711.671    -360.022
  H     -203.700     709.875    -358.590
  H     -204.567     711.425    -358.471
  P     -205.929     714.117    -360.909
  C     -205.189     715.267    -358.719
  O     -205.684     715.438    -360.033
  O     -207.151     713.345    -360.557
  O     -205.938     714.706    -362.393
  H     -206.298     714.074    -363.063
  H     -205.074     716.224    -358.254
  H     -204.241     714.772    -358.757
  H     -205.878     714.675    -358.153

 6  7  8  9  10  11  12  13  14  15  26  29  33  34 0
 6-311+G(2d,p)
 ****
 36  38  39  40  41 0
 6-311+G(2d,p)
 ****
 1  2  3  4  5  16  17  18  19  20  21  22  23  24  25 0
 3-21G
 ****
 27  28  30  31  32  35  37  42  43  44  45  46  47 0
 3-21G
 ****
 48  49 0
 3-21G
 ****


