%nproc=1
%NoSave
%Mem=1900MB
#P OB98/GEN NMR

erre ene a

0 1
  C      -62.113     -52.656     244.693
  O      -63.078     -52.069     245.553
  P      -64.359     -51.381     244.867
  C      -65.865     -53.476     244.598
  O      -65.025     -52.523     243.958
  C      -67.292     -53.367     244.076
  O      -67.855     -52.098     244.454
  C      -67.418     -53.431     242.561
  O      -67.378     -54.767     242.081
  C      -68.794     -52.817     242.354
  O      -69.809     -53.812     242.579
  C      -68.843     -51.743     243.454
  N      -70.840     -47.393     241.808
  C      -71.465     -48.548     242.231
  N      -72.815     -48.534     242.240
  N      -70.824     -49.623     242.607
  C      -69.479     -49.479     242.583
  C      -68.743     -48.385     242.183
  C      -69.465     -47.220     241.721
  O      -68.966     -46.192     241.274
  N      -67.397     -48.615     242.316
  C      -67.319     -49.825     242.828
  N      -68.554     -50.405     242.980
  O      -63.706     -50.390     243.794
  O      -65.271     -50.665     245.803
  H      -69.443     -54.667     242.281
  H      -64.320     -49.655     243.603
  H      -71.381     -46.587     241.546
  H      -66.396     -50.318     243.100
  H      -69.818     -51.732     243.956
  H      -68.942     -52.432     241.340
  H      -73.359     -47.698     242.089
  H      -66.659     -52.808     242.075
  H      -73.291     -49.359     242.582
  H      -67.891     -54.158     244.545
  H      -65.867     -53.289     245.677
  H      -65.464     -54.479     244.418
  P      -66.954     -54.966     240.544
  C      -64.415     -54.948     241.101
  O      -65.491     -54.323     240.427
  O      -67.896     -53.934     239.767
  O      -67.106     -56.362     240.041
  H      -68.033     -54.230     238.846
  H      -64.515     -56.037     241.092
  H      -64.382     -54.594     242.135
  H      -63.483     -54.679     240.601
  H      -61.321     -53.074     245.278
  H      -61.717     -51.908     244.038
  H      -62.574     -53.429     244.114

 3  4  5  6  7  8  9  10  11  12  23  26  30  31  33  0
 6-311+G(2d,p)
 ****
 35  36  37  38 0
 6-311+G(2d,p)
 ****
 1  2  13  14  15  16  17  18  19  20  21  22  24  25  27  28  29 0
 3-21G
 ****
 32  34  39  40  41  42  43  44  45  46  47  48  49 0
 3-21G
 ****


