%nproc=1
%NoSave
%Mem=1900MB
#P OB98/GEN NMR

erre ene a

0 1
  C      -40.754      -3.342     -51.058
  O      -40.911      -2.921     -49.719
  H      -41.632      -3.026     -51.628
  H      -40.674      -4.431     -51.116
  H      -39.868      -2.878     -51.500
  P      -39.802      -3.367     -48.646
  C      -41.500      -4.999     -47.563
  O      -40.247      -4.852     -48.214
  C      -41.325      -5.756     -46.248
  O      -40.544      -6.954     -46.439
  C      -40.591      -4.984     -45.155
  O      -41.376      -3.966     -44.559
  C      -40.281      -6.120     -44.194
  O      -41.471      -6.474     -43.468
  C      -39.877      -7.245     -45.179
  N      -38.432      -7.340     -45.375
  C      -37.696      -7.936     -44.343
  O      -38.261      -8.350     -43.331
  N      -36.329      -8.015     -44.464
  C      -35.747      -7.525     -45.513
  N      -34.387      -7.587     -45.561
  C      -36.483      -6.905     -46.631
  C      -37.807      -6.841     -46.498
  O      -39.556      -2.419     -47.517
  O      -38.497      -3.665     -49.523
  H      -42.190      -6.551     -44.120
  H      -37.777      -3.935     -48.903
  H      -35.948      -6.505     -47.480
  H      -38.415      -6.385     -47.270
  H      -40.252      -8.216     -44.834
  H      -39.513      -5.865     -43.457
  H      -39.646      -4.578     -45.533
  H      -42.323      -6.073     -45.915
  H      -33.913      -7.979     -44.759
  H      -42.174      -5.534     -48.237
  H      -33.853      -6.994     -46.191
  H      -41.926      -4.016     -47.340
  P      -40.831      -2.456     -44.632
  C      -39.950      -2.613     -42.186
  O      -39.657      -2.338     -43.545
  O      -42.029      -1.613     -43.990
  O      -40.452      -1.970     -45.995
  H      -42.632      -1.276     -44.680
  H      -39.065      -2.489     -41.598
  H      -40.302      -3.619     -42.094
  H      -40.705      -1.938     -41.840

 6  7  8  9  10  11  12  13  14  15  16  26  30  31  32  33  35 0
 6-311+G(2d,p)
 ****
 37  38 0
 6-311+G(2d,p)
 ****
 1  2  3  4  5  17  18  19  20  21  22  23  24  25 0
 3-21G
 ****
 27  28  29  34  36  39  40  41  42  43  44  45  46 0
 3-21G
 ****


