%nproc=1
%NoSave
%Mem=1900MB
#P OB98/GEN NMR

erre ene a

0 1
  C      -92.639      45.686     321.647
  O      -91.786      46.323     322.601
  P      -90.285      46.699     322.185
  C      -89.009      45.994     324.328
  O      -89.450      47.072     323.503
  C      -89.024      46.421     325.798
  O      -90.375      46.490     326.318
  C      -88.310      45.423     326.712
  O      -86.903      45.337     326.586
  C      -88.868      45.784     328.080
  O      -88.173      46.893     328.656
  C      -90.320      46.182     327.726
  N      -91.291      45.139     328.083
  C      -91.611      45.027     329.431
  O      -91.089      45.724     330.302
  N      -92.525      44.063     329.754
  C      -93.117      43.196     328.877
  O      -93.916      42.332     329.222
  C      -92.724      43.343     327.465
  C      -91.842      44.292     327.137
  O      -90.145      47.659     321.052
  O      -89.663      45.268     321.785
  H      -87.264      46.590     328.851
  H      -89.107      45.396     320.990
  H      -92.782      43.976     330.722
  H      -93.164      42.663     326.748
  H      -91.542      44.417     326.103
  H      -90.612      47.095     328.262
  H      -88.781      44.950     328.784
  H      -88.691      44.422     326.472
  H      -88.589      47.418     325.877
  H      -88.003      45.690     324.031
  H      -89.659      45.128     324.158
  P      -86.119      43.950     326.417
  C      -84.293      44.659     328.121
  O      -84.584      44.184     326.820
  O      -86.394      43.159     325.181
  O      -86.666      43.122     327.683
  H      -86.710      42.170     327.436
  H      -83.204      44.774     328.215
  H      -84.631      43.940     328.870
  H      -84.760      45.634     328.287
  H      -93.597      45.508     322.088
  H      -92.206      44.754     321.347
  H      -92.752      46.318     320.791

 3  4  5  6  7  8  9  10  11  12  13  23  28  29  30  31  32 0
 6-311+G(2d,p)
 ****
 33  34 0
 6-311+G(2d,p)
 ****
 1  2  14  15  16  17  18  19  20  21  22  24  25  26  27 0
 3-21G
 ****
 35  36  37  38  39  40  41  42  43  44  45 0
 3-21G
 ****


