%nproc=1
%NoSave
%Mem=1900MB
#P OB98/GEN NMR

erre ene a

0 1
  C      455.731    -302.530     -18.886
  O      456.822    -303.124     -18.214
  H      455.996    -301.503     -19.153
  H      454.866    -302.502     -18.217
  H      455.481    -303.081     -19.795
  P      456.820    -304.721     -18.078
  C      458.798    -306.403     -18.060
  O      458.302    -305.147     -17.622
  C      460.225    -306.616     -17.559
  O      461.097    -305.637     -18.202
  C      460.388    -306.457     -16.037
  O      461.356    -307.405     -15.573
  C      460.986    -305.068     -15.909
  O      461.700    -304.896     -14.688
  C      461.864    -305.022     -17.153
  N      465.596    -301.690     -16.719
  C      465.570    -303.046     -16.460
  N      466.690    -303.597     -15.953
  N      464.525    -303.803     -16.685
  C      463.474    -303.126     -17.213
  C      463.374    -301.790     -17.507
  C      464.529    -300.959     -17.243
  O      464.605    -299.747     -17.428
  N      462.118    -301.483     -17.970
  C      461.459    -302.631     -17.936
  N      462.241    -303.655     -17.479
  O      456.743    -305.200     -19.606
  O      455.711    -305.291     -17.260
  H      461.100    -305.118     -13.949
  H      455.815    -305.371     -19.854
  H      466.417    -301.149     -16.513
  H      460.423    -302.763     -18.207
  H      462.797    -305.588     -17.032
  H      460.193    -304.311     -15.955
  H      467.546    -303.088     -15.787
  H      459.456    -306.575     -15.476
  H      466.701    -304.599     -15.802
  H      460.566    -307.608     -17.882
  H      458.797    -306.428     -19.155
  H      458.143    -307.200     -17.693
  P      460.834    -308.672     -14.741
  C      461.877    -310.698     -13.483
  O      462.099    -309.526     -14.254
  O      460.176    -309.599     -15.869
  O      459.847    -308.331     -13.675
  H      459.403    -310.069     -15.501
  H      462.817    -311.149     -13.240
  H      461.285    -311.389     -14.046
  H      461.362    -310.440     -12.581

 6  7  8  9  10  11  12  13  14  15  26  29  33  34 0
 6-311+G(2d,p)
 ****
 36  38  39  40  41 0
 6-311+G(2d,p)
 ****
 1  2  3  4  5  16  17  18  19  20  21  22  23  24  25 0
 3-21G
 ****
 27  28  30  31  32  35  37  42  43  44  45  46  47 0
 3-21G
 ****
 48  49 0
 3-21G
 ****


