%nproc=1
%NoSave
%Mem=1900MB
#P OB98/GEN NMR

erre ene a

0 1
  C     -906.920    1073.553     361.401
  O     -906.772    1072.293     360.775
  H     -905.998    1074.118     361.270
  H     -907.114    1073.417     362.468
  H     -907.748    1074.104     360.938
  P     -908.041    1071.306     360.843
  C     -908.368    1071.599     358.266
  O     -908.217    1070.712     359.362
  C     -908.592    1070.828     356.962
  O     -907.335    1070.210     356.565
  C     -909.627    1069.685     357.083
  O     -910.245    1069.511     355.805
  C     -908.737    1068.510     357.399
  O     -909.446    1067.291     357.237
  C     -907.584    1068.781     356.446
  N     -903.279    1066.889     354.468
  C     -904.248    1067.642     353.929
  N     -905.360    1068.128     354.525
  C     -905.409    1067.758     355.816
  C     -904.489    1066.995     356.508
  C     -903.369    1066.544     355.787
  N     -902.376    1065.752     356.311
  N     -904.881    1066.812     357.826
  C     -906.023    1067.473     357.926
  N     -906.378    1068.049     356.742
  O     -909.280    1072.307     360.994
  O     -908.004    1070.286     361.934
  H     -908.936    1066.532     357.571
  H     -909.515    1072.407     361.932
  H     -904.115    1067.912     352.882
  H     -906.622    1067.559     358.827
  H     -907.866    1068.581     355.404
  H     -908.403    1068.532     358.446
  H     -910.401    1069.894     357.848
  H     -908.867    1071.542     356.173
  H     -907.451    1072.212     358.187
  H     -909.218    1072.270     358.452
  H     -901.615    1065.456     355.729
  H     -902.443    1065.479     357.293
  P     -911.853    1069.666     355.670
  C     -911.838    1071.604     353.910
  O     -912.184    1070.255     354.226
  O     -912.139    1070.928     356.612
  O     -912.646    1068.483     356.093
  H     -913.043    1070.867     356.973
  H     -912.134    1071.822     352.905
  H     -910.780    1071.733     354.006
  H     -912.341    1072.268     354.582

 6  7  8  9  10  11  12  13  14  15  25  28  32  33  34  35 0
 6-311+G(2d,p)
 ****
 36  37  40 0
 6-311+G(2d,p)
 ****
 1  2  3  4  5  16  17  18  19  20  21  22  23  24 0
 3-21G
 ****
 26  27  29  30  31  38  39 41  42  43  44  45  46  47  48 0
 3-21G
 ****


