%nproc=1
%NoSave
%Mem=1900MB
#P OB98/GEN NMR

erre ene a

0 1
  C     -468.265     283.020     197.083
  O     -466.859     282.888     197.152
  H     -468.552     283.167     196.039
  H     -468.591     283.886     197.662
  H     -468.760     282.116     197.456
  P     -466.187     282.507     198.555
  C     -466.993     284.778     199.485
  O     -466.934     283.370     199.681
  C     -466.588     285.500     200.766
  O     -467.547     285.233     201.813
  C     -465.236     285.057     201.321
  O     -464.170     285.616     200.583
  C     -465.342     285.542     202.758
  O     -465.044     286.946     202.847
  C     -466.831     285.271     203.074
  N     -467.038     284.035     203.830
  C     -467.271     284.182     205.195
  O     -467.274     285.264     205.770
  N     -467.465     283.015     205.893
  C     -467.345     281.746     205.391
  O     -467.446     280.741     206.074
  C     -467.080     281.659     203.949
  C     -466.939     282.788     203.243
  O     -464.696     282.574     198.598
  O     -466.714     281.021     198.838
  H     -464.078     287.029     202.714
  H     -465.995     280.384     198.667
  H     -467.622     283.099     206.884
  H     -466.991     280.674     203.508
  H     -466.734     282.741     202.182
  H     -467.256     286.103     203.647
  H     -464.651     285.026     203.422
  H     -465.176     283.961     201.327
  H     -466.587     286.581     200.570
  H     -468.019     285.056     199.222
  H     -466.328     285.050     198.655
  P     -462.685     285.051     200.774
  C     -461.710     286.541     202.634
  O     -462.274     285.270     202.310
  O     -461.680     285.536     199.780
  O     -462.863     283.462     200.677
  H     -462.336     283.128     199.929
  H     -461.477     286.572     203.678
  H     -462.414     287.313     202.403
  H     -460.817     286.691     202.064

 6  7  8  9  10  11  12  13  14  15  16  26  31  32  33  34  35 0
 6-311+G(2d,p)
 ****
 36  37 0
 6-311+G(2d,p)
 ****
 1  2  3  4  5  17  18  19  20  21  22  23  24  25 0
 3-21G
 ****
 27  28  29  30  38  39  40  41  42  43  44  45 0
 3-21G
 ****


