%nproc=1
%NoSave
%Mem=1900MB
#P OB98/GEN NMR

erre ene a

0 1
  C       41.292     157.109      -0.830
  O       42.009     155.908      -0.650
  H       41.727     157.652      -1.674
  H       41.380     157.728       0.068
  H       40.237     156.918      -1.042
  P       41.338     154.732       0.202
  C       43.379     154.866       1.774
  O       41.963     154.780       1.680
  C       43.980     153.650       2.479
  O       45.422     153.698       2.414
  C       43.625     153.607       3.966
  O       42.370     153.029       4.272
  C       44.766     152.768       4.534
  O       44.478     151.365       4.419
  C       45.946     153.149       3.636
  N       50.149     153.882       6.446
  C       49.533     152.697       6.097
  N       50.074     151.570       6.610
  N       48.476     152.632       5.331
  C       47.991     153.843       4.972
  C       48.506     155.086       5.268
  C       49.710     155.144       6.072
  O       50.291     156.169       6.416
  N       47.742     156.091       4.725
  C       46.729     155.460       4.167
  N       46.849     154.094       4.267
  O       41.997     153.402      -0.408
  O       39.842     154.669       0.140
  H       45.274     150.866       4.674
  H       41.397     152.646      -0.280
  H       50.977     153.871       7.015
  H       45.900     155.940       3.657
  H       46.542     152.269       3.362
  H       44.928     152.971       5.596
  H       50.814     151.578       7.294
  H       43.686     154.609       4.401
  H       49.506     150.720       6.599
  H       43.662     152.738       1.960
  H       43.602     155.774       2.340
  H       43.819     154.988       0.780
  P       41.339     153.808       5.218
  C       41.328     151.896       6.985
  O       41.565     153.259       6.707
  O       39.928     153.185       4.792
  O       41.356     155.291       5.080
  H       39.488     153.763       4.141
  H       41.527     151.703       8.019
  H       41.971     151.292       6.379
  H       40.307     151.660       6.768

 6  7  8  9  10  11  12  13  14  15  26  29  33  34 0
 6-311+G(2d,p)
 ****
 36  38  39  40  41 0
 6-311+G(2d,p)
 ****
 1  2  3  4  5  16  17  18  19  20  21  22  23  24  25 0
 3-21G
 ****
 27  28  30  31  32  35  37  42  43  44  45  46  47 0
 3-21G
 ****
 48  49 0
 3-21G
 ****


