%nproc=1
%NoSave
%Mem=1900MB
#P OB98/GEN NMR

erre ene a

0 1
  C     -136.271    -330.508     371.157
  O     -135.851    -331.410     372.157
  P     -135.763    -331.040     373.706
  C     -134.052    -329.805     375.251
  O     -134.493    -330.083     373.928
  C     -132.545    -329.538     375.284
  O     -131.843    -330.790     375.050
  C     -132.116    -328.578     374.152
  O     -131.158    -327.605     374.550
  C     -131.718    -329.530     373.031
  O     -130.877    -328.933     372.048
  C     -131.115    -330.696     373.809
  N     -129.148    -333.658     370.175
  C     -128.637    -332.500     370.721
  N     -127.571    -331.959     370.092
  N     -129.157    -331.897     371.759
  C     -130.295    -332.480     372.211
  C     -130.893    -333.635     371.757
  C     -130.282    -334.309     370.631
  O     -130.763    -335.277     370.046
  N     -132.070    -333.894     372.416
  C     -132.198    -332.877     373.246
  N     -131.166    -331.975     373.136
  O     -135.979    -332.156     374.676
  O     -136.996    -330.007     373.863
  H     -130.097    -328.573     372.506
  H     -137.368    -330.136     374.766
  H     -128.749    -334.033     369.324
  H     -133.036    -332.731     373.922
  H     -130.064    -330.518     374.042
  H     -132.639    -329.834     372.518
  H     -127.240    -332.321     369.199
  H     -132.966    -327.975     373.825
  H     -127.336    -330.997     370.304
  H     -132.254    -329.168     376.279
  H     -134.286    -330.694     375.850
  H     -134.604    -328.962     375.675
  P     -131.026    -326.076     374.087
  C     -129.529    -324.703     372.528
  O     -129.967    -325.996     372.886
  O     -130.259    -325.340     375.282
  O     -132.326    -325.390     373.807
  H     -130.645    -324.455     375.416
  H     -129.043    -324.751     371.543
  H     -128.804    -324.339     373.258
  H     -130.375    -324.010     372.462
  H     -136.243    -330.994     370.204
  H     -135.618    -329.660     371.145
  H     -137.270    -330.186     371.364

 3  4  5  6  7  8  9  10  11  12  23  26  30  31 0
 6-311+G(2d,p)
 ****
 33  35  36  37  38 0
 6-311+G(2d,p)
 ****
 1  2  13  14  15  16  17  18  19  20  21  22  24  25 0
 3-21G
 ****
 27  28  29  32  34  39  40  41  42  43  44  45  46  47  48  49 0
 3-21G
 ****


