%nproc=1
%NoSave
%Mem=1900MB
#P OB98/GEN NMR

erre ene a

0 1
  C     -519.009    -645.103    -162.416
  O     -519.325    -646.313    -163.071
  H     -518.624    -644.394    -163.151
  H     -518.236    -645.284    -161.664
  H     -519.896    -644.672    -161.941
  P     -520.189    -647.383    -162.250
  C     -521.155    -648.740    -164.236
  O     -520.254    -648.721    -163.139
  C     -520.440    -648.322    -165.520
  O     -519.298    -649.191    -165.726
  C     -521.319    -648.398    -166.777
  O     -521.015    -647.295    -167.628
  C     -520.874    -649.695    -167.435
  O     -521.115    -649.702    -168.841
  C     -519.397    -649.732    -167.056
  N     -517.330    -653.194    -170.082
  C     -517.665    -651.877    -170.329
  N     -517.412    -651.411    -171.570
  N     -518.195    -651.084    -169.432
  C     -518.355    -651.676    -168.225
  C     -518.072    -652.971    -167.853
  C     -517.511    -653.845    -168.861
  O     -517.217    -655.027    -168.710
  N     -518.410    -653.199    -166.543
  C     -518.896    -652.041    -166.122
  N     -518.876    -651.087    -167.102
  O     -521.677    -646.801    -162.345
  O     -519.774    -647.590    -160.833
  H     -520.672    -648.910    -169.218
  H     -521.994    -646.555    -161.455
  H     -516.941    -653.767    -170.808
  H     -519.276    -651.848    -165.131
  H     -518.782    -649.123    -167.725
  H     -521.418    -650.540    -166.995
  H     -516.964    -651.948    -172.289
  H     -522.389    -648.403    -166.550
  H     -517.611    -650.437    -171.762
  H     -520.048    -647.307    -165.383
  H     -521.977    -648.047    -164.035
  H     -521.560    -649.753    -164.352
  P     -521.824    -645.934    -167.370
  C     -520.136    -644.060    -167.959
  O     -521.264    -644.816    -168.378
  O     -521.286    -645.455    -165.940
  O     -523.309    -646.103    -167.364
  H     -521.981    -645.583    -165.263
  H     -519.873    -643.358    -168.723
  H     -519.312    -644.718    -167.781
  H     -520.374    -643.534    -167.058

 6  7  8  9  10  11  12  13  14  15  26  29  33  34 0
 6-311+G(2d,p)
 ****
 36  38  39  40  41 0
 6-311+G(2d,p)
 ****
 1  2  3  4  5  16  17  18  19  20  21  22  23  24  25 0
 3-21G
 ****
 27  28  30  31  32  35  37  42  43  44  45  46  47 0
 3-21G
 ****
 48  49 0
 3-21G
 ****


