%nproc=1
%NoSave
%Mem=1900MB
#P OB98/GEN NMR

erre ene a

0 1
  C      -60.698     -56.536     -71.592
  O      -60.010     -56.061     -70.452
  H      -61.552     -55.887     -71.801
  H      -60.020     -56.511     -72.448
  H      -61.038     -57.564     -71.441
  P      -60.708     -56.289     -69.026
  C      -62.479     -54.528     -69.733
  O      -62.236     -55.817     -69.190
  C      -63.971     -54.205     -69.695
  O      -64.421     -54.257     -68.311
  C      -64.333     -52.820     -70.254
  O      -65.562     -52.930     -70.977
  C      -64.569     -51.991     -69.004
  O      -65.438     -50.888     -69.231
  C      -65.142     -53.039     -68.055
  N      -67.117     -50.029     -64.466
  C      -67.604     -50.463     -65.647
  N      -67.030     -51.312     -66.523
  C      -65.862     -51.772     -66.044
  C      -65.241     -51.427     -64.857
  C      -65.914     -50.492     -64.051
  N      -65.396     -49.991     -62.879
  N      -64.023     -52.070     -64.745
  C      -63.902     -52.768     -65.858
  N      -64.988     -52.618     -66.674
  O      -60.052     -55.130     -68.135
  O      -60.513     -57.637     -68.421
  H      -66.342     -51.224     -69.387
  H      -59.221     -55.452     -67.741
  H      -68.576     -50.069     -65.932
  H      -63.046     -53.367     -66.133
  H      -66.209     -53.225     -68.227
  H      -63.611     -51.606     -68.635
  H      -63.561     -52.389     -70.901
  H      -64.511     -54.991     -70.235
  H      -62.139     -54.508     -70.774
  H      -65.900     -49.245     -62.425
  H      -64.455     -50.243     -62.614
  H      -61.914     -53.783     -69.164
  P      -65.486     -52.860     -72.577
  C      -65.500     -50.257     -72.632
  O      -64.831     -51.460     -72.995
  O      -67.018     -52.695     -73.010
  O      -64.863     -54.063     -73.207
  H      -67.177     -53.134     -73.865
  H      -64.938     -49.417     -72.982
  H      -65.591     -50.207     -71.567
  H      -66.474     -50.243     -73.074

 6  7  8  9  10  11  12  13  14  15  25  28  32  33  34  35 0
 6-311+G(2d,p)
 ****
 36  39  40 0
 6-311+G(2d,p)
 ****
 1  2  3  4  5  16  17  18  19  20  21  22  23  24 0
 3-21G
 ****
 26  27  29  30  31  37  38  41  42  43  44  45  46  47 0
 3-21G
 ****
 48 0
 3-21G
 ****


