%nproc=1
%NoSave
%Mem=1900MB
#P OB98/GEN NMR

erre ene a

0 1
  C     -273.487     231.258     113.936
  O     -274.405     231.598     114.956
  P     -275.245     230.472     115.724
  C     -276.789     229.598     113.875
  O     -276.698     230.390     115.051
  C     -277.917     230.081     112.960
  O     -277.903     229.310     111.731
  C     -279.319     229.957     113.579
  O     -280.067     231.106     113.160
  C     -279.869     228.700     112.932
  O     -281.290     228.656     112.953
  C     -279.237     228.796     111.539
  N     -279.220     227.517     110.846
  C     -280.203     227.307     109.875
  O     -281.109     228.130     109.724
  N     -280.137     226.167     109.109
  C     -279.286     225.238     109.419
  N     -279.209     224.159     108.596
  C     -278.402     225.320     110.599
  C     -278.389     226.490     111.238
  O     -275.258     230.601     117.211
  O     -274.561     229.095     115.277
  H     -274.320     228.584     116.073
  H     -281.638     229.517     112.635
  H     -277.800     224.471     110.891
  H     -277.752     226.658     112.097
  H     -279.779     229.525     110.918
  H     -279.493     227.819     113.465
  H     -279.301     229.916     114.671
  H     -277.712     231.124     112.694
  H     -279.801     224.155     107.775
  H     -276.994     228.564     114.175
  H     -278.385     223.556     108.567
  H     -275.831     229.608     113.342
  P     -280.779     232.006     114.288
  C     -283.007     230.709     113.969
  O     -282.361     231.964     114.027
  O     -280.396     233.490     113.805
  O     -280.320     231.799     115.697
  H     -280.416     234.089     114.577
  H     -284.057     230.867     113.717
  H     -282.952     230.208     114.939
  H     -282.553     230.074     113.198
  H     -273.033     232.148     113.553
  H     -274.002     230.753     113.146
  H     -272.731     230.616     114.336

 3  4  5  6  7  8  9  10  11  12  13  24  27  28  29  30  32 0
 6-311+G(2d,p)
 ****
 34  35 0
 6-311+G(2d,p)
 ****
 1  2  14  15  16  17  18  19  20  21  22  23  25  26 0
 3-21G
 ****
 31  33  36  37  38  39  40  41  42  43  44  45  46 0
 3-21G
 ****


