%nproc=1
%NoSave
%Mem=1900MB
#P OB98/GEN NMR

erre ene a

0 1
  C      183.405     186.113     240.591
  O      183.443     187.516     240.758
  H      182.745     185.658     241.335
  H      183.023     185.890     239.593
  H      184.413     185.696     240.685
  P      183.879     188.048     242.207
  C      181.748     189.524     242.150
  O      182.549     188.621     242.900
  C      180.277     189.332     242.492
  O      179.811     188.059     241.988
  C      179.964     189.312     243.984
  O      179.923     190.620     244.536
  C      178.586     188.665     243.974
  O      177.588     189.652     243.644
  C      178.706     187.642     242.835
  N      176.619     183.040     243.758
  C      176.087     184.195     243.297
  N      176.698     185.381     243.085
  C      178.004     185.303     243.388
  C      178.688     184.197     243.864
  C      177.938     183.024     244.057
  N      178.486     181.853     244.542
  N      180.023     184.485     244.047
  C      180.148     185.747     243.687
  N      178.952     186.287     243.286
  O      184.724     189.372     241.881
  O      184.668     187.086     243.032
  H      177.370     190.119     244.473
  H      185.453     189.449     242.525
  H      175.026     184.166     243.062
  H      181.075     186.305     243.693
  H      177.810     187.634     242.204
  H      178.307     188.227     244.937
  H      180.662     188.669     244.529
  H      179.705     190.121     241.985
  H      181.896     189.343     241.081
  H      177.954     181.003     244.472
  H      179.478     181.847     244.757
  H      182.061     190.547     242.383
  P      180.865     190.921     245.802
  C      179.520     193.068     246.368
  O      179.968     191.791     246.809
  O      181.914     191.987     245.229
  O      181.549     189.730     246.382
  H      182.743     191.953     245.744
  H      178.938     193.528     247.139
  H      178.920     192.952     245.490
  H      180.365     193.685     246.144

 6  7  8  9  10  11  12  13  14  15  25  28  32  33  34  35 0
 6-311+G(2d,p)
 ****
 36  39  40 0
 6-311+G(2d,p)
 ****
 1  2  3  4  5  16  17  18  19  20  21  22  23  24 0
 3-21G
 ****
 26  27  29  30  31  37  38  41  42  43  44  45  46  47  48 0
 3-21G
 ****


