%nproc=1
%NoSave
%Mem=1900MB
#P OB98/GEN NMR

erre ene a

0 1
  C        9.206      -9.905     -10.820
  O        9.124     -10.486      -9.533
  P        8.569     -11.977      -9.365
  C        6.518     -13.309     -10.154
  O        7.082     -12.016      -9.965
  C        5.001     -13.210     -10.293
  O        4.412     -12.744      -9.062
  C        4.539     -12.231     -11.365
  O        4.694     -12.786     -12.657
  C        3.095     -11.991     -10.942
  O        2.247     -13.052     -11.412
  C        3.204     -12.030      -9.410
  N        0.546      -8.710      -6.597
  C        0.204      -9.887      -7.162
  N        0.961     -10.697      -7.934
  C        2.180     -10.166      -8.118
  C        2.661      -8.960      -7.634
  C        1.790      -8.222      -6.816
  N        2.147      -7.052      -6.183
  N        3.956      -8.748      -8.069
  C        4.244      -9.800      -8.806
  N        3.226     -10.712      -8.811
  O        8.716     -12.564      -8.001
  O        9.410     -12.818     -10.436
  H        2.176     -12.959     -12.380
  H        9.921     -13.510      -9.975
  H       -0.808     -10.228      -6.963
  H        5.173      -9.954      -9.338
  H        2.371     -12.580      -8.957
  H        2.691     -11.054     -11.335
  H        5.099     -11.292     -11.278
  H        4.610     -14.216     -10.495
  H        6.772     -13.926      -9.287
  H        1.498      -6.682      -5.506
  H        3.137      -6.839      -6.086
  H        6.952     -13.765     -11.050
  P        4.982     -11.827     -13.906
  C        3.486     -10.449     -15.468
  O        3.582     -11.602     -14.654
  O        6.117     -12.234     -14.785
  O        5.254     -10.401     -13.230
  H        5.895      -9.902     -13.770
  H        3.327      -9.569     -14.839
  H        2.633     -10.565     -16.140
  H        4.393     -10.315     -16.064
  H        9.597      -8.912     -10.739
  H        8.230      -9.870     -11.258
  H        9.853     -10.494     -11.437

 3  4  5  6  7  8  9  10  11  12  22  25  29  30  31  32 0
 6-311+G(2d,p)
 ****
 33  36  37 0
 6-311+G(2d,p)
 ****
 1  2  13  14  15  16  17  18  19  20  21  23  24  26 0
 3-21G
 ****
 27  28  34  35  38  39  40  41  42  43  44  45  46  47  48 0
 3-21G
 ****


