%nproc=1
%NoSave
%Mem=1900MB
#P OB98/GEN NMR

erre ene a

0 1
  C        8.218       3.812      36.274
  O        8.615       4.009      34.928
  P        7.457       4.267      33.844
  C        7.087       1.826      33.038
  O        7.608       3.115      32.737
  C        6.916       0.986      31.771
  O        6.468      -0.340      32.144
  C        5.911       1.561      30.772
  O        6.405       1.303      29.457
  C        4.666       0.727      31.002
  O        3.823       0.706      29.852
  C        5.280      -0.630      31.380
  N        4.351      -1.466      32.134
  C        3.623      -2.414      31.408
  O        3.723      -2.461      30.182
  N        2.764      -3.246      32.081
  C        2.568      -3.074      33.352
  N        1.710      -3.925      33.974
  C        3.223      -2.005      34.131
  C        4.108      -1.261      33.471
  O        7.966       5.579      33.084
  O        6.091       4.440      34.423
  H        4.255       0.147      29.169
  H        7.212       6.122      32.786
  H        2.996      -1.881      35.180
  H        4.654      -0.469      33.966
  H        5.589      -1.178      30.480
  H        4.093       1.136      31.844
  H        5.749       2.635      30.902
  H        7.899       0.875      31.299
  H        1.262      -4.640      33.415
  H        6.106       1.939      33.508
  H        1.495      -3.866      34.960
  H        7.750       1.324      33.749
  P        6.926       2.553      28.599
  C        4.701       3.218      27.505
  O        5.962       2.608      27.319
  O        8.274       1.962      27.960
  O        7.185       3.840      29.307
  H        8.730       2.659      27.454
  H        4.209       3.310      26.533
  H        4.817       4.215      27.937
  H        4.078       2.596      28.156
  H        9.084       3.653      36.882
  H        7.577       2.957      36.335
  H        7.693       4.677      36.621

 3  4  5  6  7  8  9  10  11  12  13  21  23  27  28  29  30  32 0
 6-311+G(2d,p)
 ****
 34  35 0
 6-311+G(2d,p)
 ****
 1  2  14  15  16  17  18  19  20  22  24  25  26 0
 3-21G
 ****
 31  33  36  37  38  39  40  41  42  43  44  45  46 0
 3-21G
 ****


