%nproc=1
%NoSave
%Mem=1900MB
#P OB98/GEN NMR

erre ene a

0 1
  C     -239.379     312.823     220.977
  O     -239.773     311.612     221.623
  P     -241.331     311.304     221.832
  C     -242.951     311.234     223.837
  O     -241.769     311.801     223.296
  C     -243.323     311.904     225.171
  O     -242.265     311.677     226.146
  C     -243.534     313.418     225.046
  O     -244.768     313.864     225.611
  C     -242.271     314.003     225.658
  O     -242.446     315.332     226.129
  C     -241.881     312.948     226.697
  N     -240.452     313.003     227.023
  C     -240.116     313.164     228.357
  O     -240.955     313.335     229.245
  N     -238.780     313.184     228.647
  C     -237.765     313.139     227.736
  O     -236.581     313.207     228.041
  C     -238.175     313.032     226.330
  C     -239.481     312.969     226.041
  O     -241.777     309.926     221.475
  O     -242.039     312.390     220.879
  H     -241.566     315.693     226.365
  H     -242.811     311.964     220.459
  H     -238.525     313.285     229.619
  H     -237.403     313.018     225.575
  H     -239.814     312.904     225.014
  H     -242.430     313.096     227.637
  H     -241.496     314.036     224.884
  H     -243.598     313.725     223.995
  H     -244.238     311.420     225.536
  H     -242.797     310.168     224.009
  H     -243.761     311.313     223.104
  P     -246.015     314.398     224.762
  C     -246.722     316.625     223.645
  O     -245.806     315.961     224.492
  O     -247.361     314.021     225.283
  O     -245.778     313.737     223.319
  H     -246.631     313.442     222.959
  H     -246.256     317.542     223.274
  H     -247.614     316.896     224.214
  H     -247.002     316.001     222.796
  H     -238.311     312.867     220.921
  H     -239.741     313.660     221.536
  H     -239.789     312.850     219.989

 3  4  5  6  7  8  9  10  11  12  13  23  28  29  30  31  32 0
 6-311+G(2d,p)
 ****
 33  34 0
 6-311+G(2d,p)
 ****
 1  2  14  15  16  17  18  19  20  21  22  24  25  26  27 0
 3-21G
 ****
 35  36  37  38  39  40  41  42  43  44  45 0
 3-21G
 ****


