%nproc=1
%NoSave
%Mem=1900MB
#P OB98/GEN NMR

erre ene a

0 1
  C      -81.656     774.337    -378.029
  O      -80.477     775.011    -377.646
  H      -82.422     775.077    -378.268
  H      -82.023     773.692    -377.225
  H      -81.473     773.738    -378.934
  P      -79.203     774.137    -377.209
  C      -77.627     775.486    -378.745
  O      -77.918     775.089    -377.414
  C      -76.773     776.758    -378.739
  O      -77.534     777.869    -378.237
  C      -75.518     776.666    -377.865
  O      -74.478     776.002    -378.564
  C      -75.220     778.144    -377.659
  O      -74.628     778.698    -378.848
  C      -76.641     778.714    -377.460
  N      -75.773     780.512    -372.777
  C      -74.985     780.574    -373.909
  N      -73.784     781.162    -373.773
  N      -75.331     780.090    -375.080
  C      -76.537     779.451    -375.058
  C      -77.392     779.308    -373.988
  C      -77.038     779.900    -372.723
  O      -77.710     779.903    -371.705
  N      -78.480     778.526    -374.321
  C      -78.298     778.242    -375.607
  N      -77.112     778.770    -376.094
  O      -79.079     772.786    -377.852
  O      -79.325     774.032    -375.614
  H      -75.067     779.568    -379.005
  H      -79.813     773.235    -375.346
  H      -75.449     780.887    -371.907
  H      -78.972     777.667    -376.213
  H      -76.731     779.739    -377.865
  H      -74.536     778.323    -376.836
  H      -73.399     781.437    -372.869
  H      -75.733     776.206    -376.900
  H      -73.162     781.176    -374.579
  H      -76.512     776.993    -379.793
  H      -78.580     775.674    -379.258
  H      -77.089     774.696    -379.287
  P      -73.605     774.850    -377.870
  C      -74.626     772.822    -379.101
  O      -73.496     773.669    -378.956
  O      -74.082     774.416    -376.530
  O      -72.114     775.427    -377.872
  H      -71.918     776.014    -377.093
  H      -74.425     772.084    -379.849
  H      -75.474     773.405    -379.394
  H      -74.831     772.338    -378.169

 6  7  8  9  10  11  12  13  14  15  26  29  33  34 0
 6-311+G(2d,p)
 ****
 36  38  39  40  41 0
 6-311+G(2d,p)
 ****
 1  2  3  4  5  16  17  18  19  20  21  22  23  24  25 0
 3-21G
 ****
 27  28  30  31  32  35  37  42  43  44  45  46  47 0
 3-21G
 ****
 48  49 0
 3-21G
 ****


