%nproc=1
%NoSave
%Mem=1900MB
#P OB98/GEN NMR

erre ene a

0 1
  C       21.390      48.298     127.578
  O       22.305      47.882     126.584
  H       21.871      48.207     128.555
  H       20.504      47.659     127.566
  H       21.100      49.342     127.428
  P       21.903      48.061     125.042
  C       21.078      45.637     124.725
  O       20.727      47.015     124.742
  C       19.941      44.819     124.118
  O       18.755      44.929     124.937
  C       19.526      45.280     122.726
  O       20.451      44.849     121.747
  C       18.145      44.654     122.616
  O       18.237      43.267     122.253
  C       17.612      44.814     124.057
  N       16.713      45.957     124.207
  C       15.524      45.910     123.485
  O       15.230      44.986     122.726
  N       14.688      46.984     123.642
  C       14.969      48.122     124.341
  O       14.223      49.096     124.377
  C       16.248      48.127     125.064
  C       17.049      47.062     124.966
  O       23.035      48.035     124.072
  O       21.142      49.471     125.014
  H       17.321      42.932     122.208
  H       21.728      50.147     124.623
  H       13.829      46.974     123.116
  H       16.502      49.006     125.641
  H       17.999      47.050     125.487
  H       17.070      43.910     124.365
  H       17.528      45.141     121.862
  H       19.420      46.371     122.707
  H       20.243      43.762     124.104
  H       21.256      45.306     125.753
  H       22.000      45.511     124.146
  P       20.791      45.794     120.500
  C       19.535      44.627     118.585
  O       19.549      45.729     119.486
  O       22.128      45.574     119.879
  O       20.682      47.273     121.103
  H       21.545      47.722     121.015
  H       18.667      44.687     117.962
  H       19.513      43.713     119.140
  H       20.414      44.653     117.976

 6  7  8  9  10  11  12  13  14  15  16  26  31  32  33  34  35 0
 6-311+G(2d,p)
 ****
 36  37 0
 6-311+G(2d,p)
 ****
 1  2  3  4  5  17  18  19  20  21  22  23  24  25 0
 3-21G
 ****
 27  28  29  30  38  39  40  41  42  43  44  45 0
 3-21G
 ****


