%nproc=1
%NoSave
%Mem=1900MB
#P OB98/GEN NMR

erre ene a

0 1
  C      109.502     -87.858     -38.688
  O      108.233     -88.409     -38.956
  H      109.787     -88.118     -37.665
  H      109.451     -86.768     -38.770
  H      110.261     -88.242     -39.373
  P      107.779     -88.580     -40.481
  C      106.274     -90.638     -40.056
  O      106.333     -89.287     -40.495
  C      104.838     -91.150     -39.985
  O      104.203     -90.661     -38.783
  C      103.982     -90.668     -41.160
  O      104.053     -91.489     -42.312
  C      102.578     -90.680     -40.560
  O      101.954     -91.962     -40.714
  C      102.823     -90.379     -39.080
  N       99.390     -87.122     -37.133
  C       99.224     -88.451     -37.485
  N       97.979     -88.953     -37.334
  N      100.193     -89.193     -37.959
  C      101.352     -88.524     -38.144
  C      101.629     -87.205     -37.852
  C      100.576     -86.411     -37.262
  O      100.678     -85.241     -36.916
  N      102.912     -86.865     -38.219
  C      103.372     -87.951     -38.813
  N      102.492     -89.013     -38.719
  O      108.731     -89.747     -41.031
  O      107.896     -87.352     -41.334
  H      102.553     -92.637     -40.331
  H      108.909     -89.608     -41.980
  H       98.620     -86.607     -36.746
  H      104.349     -88.046     -39.279
  H      102.221     -91.031     -38.430
  H      101.932     -89.953     -41.063
  H       97.181     -88.401     -37.057
  H      104.233     -89.634     -41.422
  H       97.772     -89.860     -37.760
  H      104.842     -92.245     -39.918
  H      106.733     -90.657     -39.062
  H      106.875     -91.278     -40.709
  P      103.584     -90.951     -43.746
  C      105.679     -91.653     -45.163
  O      104.306     -91.817     -44.870
  O      104.314     -89.527     -43.842
  O      102.107     -90.838     -43.937
  H      103.694     -88.809     -43.610
  H      105.960     -92.328     -45.944
  H      106.258     -91.860     -44.287
  H      105.859     -90.647     -45.479

 6  7  8  9  10  11  12  13  14  15  26  29  33  34 0
 6-311+G(2d,p)
 ****
 36  38  39  40  41 0
 6-311+G(2d,p)
 ****
 1  2  3  4  5  16  17  18  19  20  21  22  23  24  25 0
 3-21G
 ****
 27  28  30  31  32  35  37  42  43  44  45  46  47 0
 3-21G
 ****
 48  49 0
 3-21G
 ****


