%nproc=1
%NoSave
%Mem=1900MB
#P OB98/GEN NMR

erre ene a

0 1
  C     -616.003     949.996    -358.892
  O     -615.689     950.315    -360.235
  H     -616.785     949.236    -358.896
  H     -616.366     950.880    -358.363
  H     -615.117     949.599    -358.395
  P     -614.579     951.458    -360.458
  C     -612.721     949.684    -360.129
  O     -613.278     950.915    -359.678
  C     -611.336     949.919    -360.751
  O     -610.502     950.648    -359.858
  C     -610.589     948.646    -361.120
  O     -611.014     948.152    -362.368
  C     -609.163     949.164    -361.168
  O     -608.932     949.800    -362.444
  C     -609.128     950.211    -360.044
  N     -606.507     951.540    -355.844
  C     -606.720     952.198    -357.005
  N     -607.380     951.751    -358.107
  C     -607.860     950.517    -357.913
  C     -607.704     949.722    -356.785
  C     -607.001     950.278    -355.704
  N     -606.772     949.621    -354.509
  N     -608.323     948.504    -356.942
  C     -608.888     948.578    -358.134
  N     -608.597     949.759    -358.776
  O     -615.003     952.847    -360.142
  O     -614.191     951.206    -362.001
  H     -609.653     950.453    -362.574
  H     -614.141     950.246    -362.183
  H     -606.310     953.195    -357.073
  H     -609.521     947.804    -358.576
  H     -608.554     951.103    -360.331
  H     -608.409     948.379    -361.075
  H     -610.673     947.892    -360.325
  H     -611.494     950.558    -361.641
  H     -613.382     949.201    -360.849
  H     -606.100     950.012    -353.879
  H     -607.031     948.650    -354.464
  H     -612.634     949.020    -359.253
  P     -611.515     946.638    -362.553
  C     -613.605     947.053    -361.106
  O     -612.378     946.330    -361.235
  O     -610.429     945.668    -362.852
  O     -612.622     946.719    -363.703
  H     -612.788     945.830    -364.074
  H     -614.092     946.769    -360.197
  H     -614.241     946.828    -361.937
  H     -613.400     948.103    -361.088

 6  7  8  9  10  11  12  13  14  15  25  28  32  33  34  35 0
 6-311+G(2d,p)
 ****
 36  39  40 0
 6-311+G(2d,p)
 ****
 1  2  3  4  5  16  17  18  19  20  21  22  23  24 0
 3-21G
 ****
 26  27  29  30  31  37  38  41  42  43  44  45  46  47 0
 3-21G
 ****
 48 0
 3-21G
 ****


