%nproc=1
%NoSave
%Mem=1900MB
#P OB98/GEN NMR

erre ene a

0 1
  C     -102.752    -919.442    -496.752
  O     -103.312    -920.735    -496.913
  P     -102.340    -921.940    -497.299
  C     -103.398    -923.252    -495.316
  O     -102.996    -923.280    -496.680
  C     -104.370    -924.405    -495.034
  O     -103.780    -925.661    -495.418
  C     -104.709    -924.565    -493.555
  O     -105.724    -923.648    -493.137
  C     -105.235    -925.985    -493.541
  O     -106.604    -926.024    -494.001
  C     -104.319    -926.692    -494.536
  N     -102.661    -931.217    -492.966
  C     -103.732    -930.882    -493.761
  N     -104.533    -931.924    -494.145
  N     -104.033    -929.688    -494.159
  C     -103.161    -928.750    -493.696
  C     -102.049    -928.934    -492.878
  C     -101.746    -930.281    -492.456
  O     -100.840    -930.616    -491.697
  N     -101.399    -927.752    -492.628
  C     -102.116    -926.844    -493.262
  N     -103.214    -927.389    -493.887
  O     -101.058    -921.702    -496.382
  O     -101.990    -922.027    -498.752
  H     -107.130    -925.461    -493.402
  H     -100.294    -922.216    -496.712
  H     -102.482    -932.170    -492.690
  H     -101.887    -925.787    -493.283
  H     -104.855    -927.418    -495.159
  H     -105.245    -926.433    -492.540
  H     -104.402    -932.876    -493.825
  H     -103.832    -924.506    -492.921
  H     -105.366    -931.711    -494.696
  H     -105.266    -924.247    -495.632
  H     -103.888    -922.301    -495.093
  H     -102.500    -923.340    -494.670
  P     -105.607    -923.048    -491.650
  C     -106.286    -920.705    -492.553
  O     -106.540    -921.750    -491.636
  O     -104.116    -922.466    -491.627
  O     -105.846    -924.057    -490.575
  H     -103.767    -922.454    -490.722
  H     -107.156    -920.048    -492.599
  H     -106.103    -921.119    -493.565
  H     -105.408    -920.128    -492.235
  H     -103.525    -918.748    -496.496
  H     -102.288    -919.138    -497.667
  H     -102.020    -919.465    -495.972

 3  4  5  6  7  8  9  10  11  12  23  26  30  31 0
 6-311+G(2d,p)
 ****
 33  35  36  37  38 0
 6-311+G(2d,p)
 ****
 1  2  13  14  15  16  17  18  19  20  21  22  24  25 0
 3-21G
 ****
 27  28  29  32  34  39  40  41  42  43  44  45  46  47  48  49 0
 3-21G
 ****


