%nproc=1
%NoSave
%Mem=1900MB
#P OB98/GEN NMR

erre ene a

0 1
  C     -270.277     -41.028     241.933
  O     -270.973     -39.811     241.776
  H     -270.069     -41.441     240.940
  H     -270.887     -41.748     242.483
  H     -269.327     -40.871     242.449
  P     -271.266     -38.920     243.076
  C     -270.647     -36.561     242.242
  O     -270.256     -37.676     243.030
  C     -269.431     -35.678     241.961
  O     -268.472     -36.391     241.146
  C     -269.760     -34.405     241.189
  O     -270.357     -33.435     242.027
  C     -268.385     -34.024     240.658
  O     -267.613     -33.350     241.665
  C     -267.783     -35.412     240.335
  N     -267.867     -35.749     238.915
  C     -267.177     -34.917     238.032
  O     -266.554     -33.922     238.399
  N     -267.261     -35.252     236.713
  C     -268.032     -36.243     236.180
  O     -268.142     -36.445     234.974
  C     -268.759     -37.077     237.150
  C     -268.643     -36.796     238.452
  O     -271.300     -39.658     244.373
  O     -272.684     -38.238     242.757
  H     -266.747     -33.148     241.260
  H     -273.379     -38.683     243.278
  H     -266.778     -34.652     236.057
  H     -269.372     -37.882     236.770
  H     -269.176     -37.397     239.182
  H     -266.726     -35.447     240.631
  H     -268.444     -33.362     239.801
  H     -270.414     -34.634     240.342
  H     -268.947     -35.437     242.917
  H     -271.394     -35.983     242.797
  H     -271.090     -36.921     241.309
  P     -271.948     -33.269     242.054
  C     -272.476     -33.920     244.482
  O     -272.538     -34.317     243.114
  O     -272.612     -33.288     240.713
  O     -272.174     -31.862     242.775
  H     -272.639     -31.251     242.167
  H     -272.894     -34.690     245.096
  H     -273.031     -33.015     244.616
  H     -271.456     -33.757     244.760

 6  7  8  9  10  11  12  13  14  15  16  26  31  32  33  34  35 0
 6-311+G(2d,p)
 ****
 36  37 0
 6-311+G(2d,p)
 ****
 1  2  3  4  5  17  18  19  20  21  22  23  24  25 0
 3-21G
 ****
 27  28  29  30  38  39  40  41  42  43  44  45 0
 3-21G
 ****


