%nproc=1
%NoSave
%Mem=1900MB
#P OB98/GEN NMR

erre ene a

0 1
  C       15.420    -377.587      18.366
  O       14.554    -378.066      17.325
  P       12.961    -378.037      17.557
  C       11.021    -376.329      17.125
  O       12.421    -376.570      17.193
  C       10.746    -374.951      16.520
  O       11.368    -373.914      17.312
  C       11.304    -374.762      15.112
  O       10.502    -375.409      14.137
  C       11.300    -373.240      14.991
  O        9.998    -372.758      14.619
  C       11.650    -372.805      16.427
  N       13.035    -372.357      16.562
  C       13.229    -370.986      16.707
  O       12.315    -370.166      16.679
  N       14.530    -370.582      16.864
  C       15.632    -371.391      16.813
  O       16.777    -370.963      16.936
  C       15.369    -372.814      16.573
  C       14.107    -373.225      16.453
  O       12.857    -378.036      19.158
  O       12.200    -379.181      16.977
  H       10.026    -371.785      14.695
  H       12.016    -378.450      19.430
  H       14.692    -369.599      17.003
  H       16.219    -373.483      16.503
  H       13.890    -374.279      16.275
  H       10.989    -371.992      16.747
  H       12.005    -372.880      14.234
  H       12.339    -375.126      15.072
  H        9.658    -374.783      16.530
  H       10.603    -376.364      18.138
  H       10.549    -377.117      16.526
  P       10.705    -376.994      13.976
  C        9.955    -379.010      15.471
  O        9.779    -377.656      15.109
  O       12.207    -377.162      14.509
  O       10.487    -377.477      12.578
  H       12.415    -376.532      15.224
  H       11.002    -379.318      15.391
  H        9.342    -379.638      14.811
  H        9.626    -379.147      16.501
  H       16.439    -377.676      18.051
  H       15.268    -378.168      19.252
  H       15.198    -376.560      18.570

 3  4  5  6  7  8  9  10  11  12  13  23  28  29  30  31  32 0
 6-311+G(2d,p)
 ****
 33  34 0
 6-311+G(2d,p)
 ****
 1  2  14  15  16  17  18  19  20  21  22  24  25  26 0
 3-21G
 ****
 27  35  36  37  38  39  40  41  42  43  44  45 0
 3-21G
 ****


