%nproc=1
%NoSave
%Mem=1900MB
#P OB98/GEN NMR

erre ene a

0 1
  C      510.887      -4.256      65.136
  O      510.553      -2.921      65.467
  P      511.617      -1.983      66.214
  C      512.395      -0.690      64.129
  O      512.769      -1.594      65.165
  C      512.875       0.721      64.454
  O      514.293       0.727      64.736
  C      512.695       1.712      63.321
  O      511.335       2.083      63.149
  C      513.611       2.844      63.766
  O      512.969       3.670      64.749
  C      514.776       2.056      64.407
  N      515.950       1.998      63.549
  C      516.677       3.190      63.420
  O      516.274       4.226      63.947
  N      517.838       3.167      62.687
  C      518.172       2.100      62.044
  N      519.362       2.116      61.380
  C      517.349       0.874      62.019
  C      516.271       0.886      62.805
  O      512.113      -2.501      67.526
  O      510.843      -0.594      66.408
  H      510.920      -0.318      67.344
  H      512.942       3.153      65.576
  H      517.637       0.030      61.409
  H      515.618       0.021      62.876
  H      515.063       2.515      65.362
  H      513.911       3.496      62.941
  H      513.076       1.279      62.388
  H      512.344       1.062      65.355
  H      519.909       2.970      61.430
  H      511.304      -0.695      64.041
  H      519.864       1.265      61.126
  H      512.823      -1.032      63.179
  P      510.848       2.376      61.647
  C      510.385      -0.061      60.908
  O      511.198       1.087      60.769
  O      511.882       3.482      61.133
  O      509.436       2.858      61.539
  H      511.423       4.121      60.555
  H      510.522      -0.695      60.025
  H      509.325       0.205      60.991
  H      510.693      -0.626      61.795
  H      510.057      -4.720      64.646
  H      511.122      -4.797      66.029
  H      511.735      -4.260      64.483

 3  4  5  6  7  8  9  10  11  12  13  24  27  28  29  30  32 0
 6-311+G(2d,p)
 ****
 34  35 0
 6-311+G(2d,p)
 ****
 1  2  14  15  16  17  18  19  20  21  22  23  25  26 0
 3-21G
 ****
 31  33  36  37  38  39  40  41  42  43  44  45  46 0
 3-21G
 ****


