%nproc=1
%NoSave
%Mem=1900MB
#P OB98/GEN NMR

erre ene a

0 1
  C     -580.921    -218.583     290.681
  O     -579.911    -217.633     290.955
  H     -581.176    -218.571     289.616
  H     -580.549    -219.579     290.935
  H     -581.813    -218.380     291.280
  P     -580.264    -216.096     290.655
  C     -579.956    -213.889     291.994
  O     -579.974    -215.305     292.028
  C     -579.821    -213.343     293.416
  O     -581.019    -213.622     294.172
  C     -578.667    -213.955     294.215
  O     -577.417    -213.361     293.902
  C     -579.109    -213.621     295.629
  O     -578.827    -212.236     295.908
  C     -580.620    -213.859     295.560
  N     -580.610    -217.288     299.345
  C     -580.121    -216.040     299.272
  N     -580.152    -215.201     298.222
  C     -580.789    -215.760     297.173
  C     -581.334    -217.024     297.108
  C     -581.233    -217.813     298.270
  N     -581.723    -219.106     298.355
  N     -581.864    -217.275     295.854
  C     -581.673    -216.152     295.189
  N     -581.010    -215.202     295.941
  O     -581.862    -216.085     290.559
  O     -579.608    -215.503     289.449
  H     -577.869    -212.110     295.787
  H     -582.159    -215.295     290.072
  H     -579.623    -215.672     300.163
  H     -581.990    -215.968     294.173
  H     -581.188    -213.162     296.188
  H     -578.581    -214.214     296.390
  H     -578.642    -215.049     294.099
  H     -579.701    -212.255     293.357
  H     -580.891    -213.522     291.560
  H     -581.437    -219.643     299.158
  H     -582.052    -219.547     297.510
  H     -579.116    -213.551     291.374
  P     -576.095    -214.191     294.259
  C     -573.556    -213.820     293.830
  O     -574.893    -213.475     293.492
  O     -576.291    -215.567     293.443
  O     -575.882    -214.431     295.724
  H     -575.802    -216.297     293.867
  H     -572.878    -213.253     293.227
  H     -573.402    -214.864     293.654
  H     -573.382    -213.603     294.863

 6  7  8  9  10  11  12  13  14  15  25  28  32  33  34  35 0
 6-311+G(2d,p)
 ****
 36  39  40 0
 6-311+G(2d,p)
 ****
 1  2  3  4  5  16  17  18  19  20  21  22  23  24 0
 3-21G
 ****
 26  27  29  30  31  37  38  41  42  43  44  45  46  47 0
 3-21G
 ****
 48 0
 3-21G
 ****


