%nproc=1
%NoSave
%Mem=1900MB
#P OB98/GEN NMR

erre ene a

0 1
  C       96.182     743.708    -646.811
  O       96.183     743.180    -645.492
  P       97.506     743.255    -644.592
  C       96.245     743.060    -642.362
  O       97.196     742.452    -643.226
  C       96.248     742.409    -640.985
  O       95.763     741.046    -641.080
  C       97.651     742.328    -640.314
  O       97.444     742.494    -638.902
  C       98.093     740.919    -640.616
  O       99.114     740.449    -639.732
  C       96.752     740.182    -640.479
  N       99.240     735.711    -640.933
  C       99.503     736.828    -640.206
  N       98.796     737.990    -640.161
  C       97.717     737.935    -640.964
  C       97.334     736.874    -641.772
  C       98.114     735.718    -641.730
  N       97.847     734.553    -642.434
  N       96.188     737.218    -642.494
  C       95.921     738.453    -642.119
  N       96.764     738.900    -641.155
  O       98.071     744.618    -644.389
  O       98.538     742.300    -645.345
  H       99.359     739.550    -639.996
  H       99.223     742.843    -645.804
  H      100.394     736.775    -639.596
  H       95.110     739.065    -642.517
  H       96.472     740.012    -639.426
  H       98.487     740.855    -641.626
  H       98.356     743.087    -640.684
  H       95.546     742.956    -640.329
  H       95.248     742.920    -642.809
  H       98.398     733.735    -642.228
  H       96.904     734.441    -642.820
  H       96.433     744.138    -642.286
  P       98.434     743.423    -638.044
  C       96.271     743.869    -636.776
  O       97.666     743.750    -636.668
  O       99.018     744.590    -638.768
  O       99.584     742.376    -637.574
  H      100.372     742.884    -637.279
  H       96.005     744.861    -637.165
  H       95.828     743.741    -635.767
  H       95.852     743.118    -637.433
  H       95.217     743.567    -647.251
  H       96.919     743.202    -647.398
  H       96.409     744.753    -646.777

 3  4  5  6  7  8  9  10  11  12  22  25  29  30  31  32 0
 6-311+G(2d,p)
 ****
 33  36  37 0
 6-311+G(2d,p)
 ****
 1  2  13  14  15  16  17  18  19  20  21  23  24  26 0
 3-21G
 ****
 27  28  34  35  38  39  40  41  42  43  44  45  46  47  48 0
 3-21G
 ****


