%nproc=1
%NoSave
%Mem=1900MB
#P OB98/GEN NMR

erre ene a

0 1
  C      195.296    -419.928    -125.830
  O      194.468    -419.215    -126.725
  H      195.215    -419.509    -124.824
  H      194.973    -420.971    -125.804
  H      196.339    -419.885    -126.166
  P      194.782    -417.651    -126.920
  C      195.092    -415.678    -125.253
  O      194.560    -416.980    -125.478
  C      195.162    -415.406    -123.756
  O      193.831    -415.369    -123.188
  C      195.920    -416.468    -122.959
  O      197.322    -416.284    -123.021
  C      195.387    -416.193    -121.562
  O      196.034    -415.030    -121.015
  C      193.910    -415.901    -121.840
  N      191.061    -418.759    -118.689
  C      191.813    -417.655    -118.474
  N      192.543    -416.955    -119.365
  C      192.453    -417.505    -120.592
  C      191.737    -418.631    -120.957
  C      191.007    -419.270    -119.940
  N      190.252    -420.405    -120.147
  N      191.915    -418.914    -122.301
  C      192.698    -417.944    -122.737
  N      193.060    -417.076    -121.744
  O      193.530    -417.118    -127.766
  O      196.086    -417.329    -127.566
  H      195.813    -414.283    -121.603
  H      193.759    -416.283    -128.214
  H      191.824    -417.287    -117.453
  H      193.027    -417.834    -123.762
  H      193.494    -415.143    -121.164
  H      195.572    -417.017    -120.869
  H      195.630    -417.482    -123.259
  H      195.614    -414.413    -123.610
  H      194.440    -414.940    -125.727
  H      189.922    -420.889    -119.326
  H      190.328    -420.877    -121.038
  H      196.091    -415.617    -125.702
  P      198.224    -417.593    -123.275
  C      198.705    -419.714    -121.850
  O      198.305    -418.347    -121.863
  O      199.690    -416.983    -123.462
  O      197.801    -418.426    -124.436
  H      200.244    -417.572    -124.012
  H      198.711    -420.074    -120.843
  H      199.687    -419.802    -122.266
  H      198.018    -420.292    -122.432

 6  7  8  9  10  11  12  13  14  15  25  28  32  33  34  35 0
 6-311+G(2d,p)
 ****
 36  39  40 0
 6-311+G(2d,p)
 ****
 1  2  3  4  5  16  17  18  19  20  21  22  23  24 0
 3-21G
 ****
 26  27  29  30  31  37  38  41  42  43  44  45  46  47 0
 3-21G
 ****
 48 0
 3-21G
 ****


