%nproc=1
%NoSave
%Mem=1900MB
#P OB98/GEN NMR

erre ene a

0 1
  C        0.181    -248.338    -340.574
  O        1.086    -247.510    -339.837
  P        1.689    -248.106    -338.474
  C        1.419    -245.796    -337.282
  O        2.282    -246.850    -337.669
  C        2.217    -244.521    -336.978
  O        3.322    -244.835    -336.077
  C        2.804    -243.830    -338.214
  O        2.717    -242.417    -337.983
  C        4.254    -244.278    -338.199
  O        5.092    -243.398    -338.935
  C        4.521    -244.318    -336.691
  N        5.690    -245.124    -336.346
  C        6.804    -244.444    -335.872
  O        6.866    -243.217    -335.812
  N        7.871    -245.222    -335.511
  C        7.955    -246.579    -335.647
  O        8.938    -247.227    -335.308
  C        6.789    -247.229    -336.260
  C        5.727    -246.483    -336.575
  O        2.979    -248.879    -339.012
  O        0.710    -248.948    -337.722
  H        3.426    -248.426    -339.747
  H        5.004    -242.493    -338.569
  H        8.679    -244.752    -335.134
  H        6.841    -248.297    -336.440
  H        4.862    -246.929    -337.048
  H        4.674    -243.304    -336.303
  H        4.339    -245.282    -338.633
  H        2.277    -244.088    -339.138
  H        1.553    -243.827    -336.447
  H        0.859    -246.083    -336.385
  H        0.682    -245.622    -338.075
  P        1.349    -241.664    -338.378
  C        2.230    -239.670    -339.826
  O        1.710    -240.118    -338.598
  O        0.610    -241.664    -336.955
  O        0.547    -242.329    -339.447
  H        1.186    -241.377    -336.224
  H        2.182    -238.576    -339.850
  H        1.652    -240.060    -340.668
  H        3.276    -239.976    -339.922
  H       -0.141    -247.820    -341.453
  H       -0.668    -248.569    -339.965
  H        0.675    -249.245    -340.855

 3  4  5  6  7  8  9  10  11  12  13  24  28  29  30  31  32 0
 6-311+G(2d,p)
 ****
 33  34 0
 6-311+G(2d,p)
 ****
 1  2  14  15  16  17  18  19  20  21  22  23  25  26  27 0
 3-21G
 ****
 35  36  37  38  39  40  41  42  43  44  45 0
 3-21G
 ****


