%nproc=1
%NoSave
%Mem=1900MB
#P OB98/GEN NMR

erre ene a

0 1
  C     -241.464     -71.440    -126.193
  O     -242.786     -71.062    -126.521
  H     -241.225     -71.055    -125.198
  H     -240.761     -71.012    -126.913
  H     -241.372     -72.529    -126.184
  P     -243.351     -71.567    -127.936
  C     -245.118     -73.082    -126.772
  O     -244.014     -73.005    -127.668
  C     -246.328     -73.664    -127.497
  O     -245.967     -74.929    -128.098
  C     -247.516     -73.968    -126.589
  O     -248.260     -72.802    -126.282
  C     -248.284     -74.975    -127.432
  O     -249.119     -74.324    -128.400
  C     -247.161     -75.743    -128.142
  N     -248.334     -80.701    -128.311
  C     -248.693     -79.661    -129.094
  N     -248.319     -78.367    -128.991
  C     -247.479     -78.199    -127.956
  C     -247.031     -79.161    -127.067
  C     -247.490     -80.471    -127.274
  N     -247.155     -81.523    -126.456
  N     -246.215     -78.593    -126.109
  C     -246.163     -77.313    -126.418
  N     -246.909     -77.030    -127.529
  O     -242.016     -71.912    -128.750
  O     -244.216     -70.592    -128.662
  H     -248.542     -73.716    -128.902
  H     -241.760     -71.146    -129.298
  H     -249.372     -79.898    -129.908
  H     -245.615     -76.556    -125.869
  H     -247.387     -75.924    -129.200
  H     -248.931     -75.600    -126.814
  H     -247.174     -74.462    -125.670
  H     -246.621     -72.976    -128.301
  H     -245.362     -72.075    -126.414
  H     -244.838     -73.709    -125.921
  H     -247.541     -82.433    -126.652
  H     -246.612     -81.342    -125.619
  P     -249.083     -72.758    -124.910
  C     -246.931     -72.218    -123.552
  O     -248.057     -73.068    -123.716
  O     -249.990     -74.076    -124.984
  O     -249.905     -71.525    -124.714
  H     -250.897     -73.850    -125.258
  H     -246.349     -72.554    -122.720
  H     -247.263     -71.217    -123.374
  H     -246.333     -72.243    -124.439

 6  7  8  9  10  11  12  13  14  15  25  28  32  33  34  35 0
 6-311+G(2d,p)
 ****
 36  37  40 0
 6-311+G(2d,p)
 ****
 1  2  3  4  5  16  17  18  19  20  21  22  23  24 0
 3-21G
 ****
 26  27  29  30  31  38  39 41  42  43  44  45  46  47  48 0
 3-21G
 ****


