%nproc=1
%NoSave
%Mem=1900MB
#P OB98/GEN NMR

erre ene a

0 1
  C     1169.684    -327.980    -646.325
  O     1169.349    -329.171    -647.008
  H     1170.739    -327.757    -646.505
  H     1169.535    -328.120    -645.250
  H     1169.079    -327.144    -646.683
  P     1167.786    -329.510    -647.152
  C     1167.678    -329.737    -649.735
  O     1167.338    -328.964    -648.595
  C     1166.632    -329.555    -650.834
  O     1165.409    -330.249    -650.477
  C     1166.242    -328.106    -651.103
  O     1167.162    -327.474    -651.981
  C     1164.887    -328.298    -651.767
  O     1165.073    -328.715    -653.141
  C     1164.284    -329.446    -650.947
  N     1159.831    -327.542    -649.437
  C     1160.310    -327.779    -650.708
  N     1159.483    -327.453    -651.733
  N     1161.490    -328.286    -650.968
  C     1162.209    -328.536    -649.852
  C     1161.863    -328.340    -648.540
  C     1160.547    -327.797    -648.268
  O     1160.075    -327.578    -647.154
  N     1162.857    -328.714    -647.684
  C     1163.827    -329.122    -648.480
  N     1163.495    -329.026    -649.805
  O     1167.108    -328.479    -646.127
  O     1167.408    -330.918    -646.842
  H     1164.189    -328.741    -653.550
  H     1166.866    -328.963    -645.317
  H     1158.923    -327.143    -649.292
  H     1164.789    -329.492    -648.147
  H     1163.651    -330.099    -651.559
  H     1164.298    -327.376    -651.794
  H     1158.575    -327.038    -651.604
  H     1166.119    -327.542    -650.167
  H     1159.814    -327.621    -652.672
  H     1167.012    -330.031    -651.743
  H     1167.729    -330.796    -649.454
  H     1168.659    -329.414    -650.104
  P     1167.384    -325.892    -651.839
  C     1169.817    -325.420    -651.073
  O     1168.475    -325.675    -650.675
  O     1166.021    -325.403    -651.159
  O     1167.648    -325.170    -653.115
  H     1165.508    -324.867    -651.795
  H     1170.429    -325.297    -650.204
  H     1169.851    -324.528    -651.663
  H     1170.180    -326.244    -651.651

 6  7  8  9  10  11  12  13  14  15  26  29  33  34 0
 6-311+G(2d,p)
 ****
 36  38  39  40  41 0
 6-311+G(2d,p)
 ****
 1  2  3  4  5  16  17  18  19  20  21  22  23  24  25 0
 3-21G
 ****
 27  28  30  31  32  35  37  42  43  44  45  46  47 0
 3-21G
 ****
 48  49 0
 3-21G
 ****


