%nproc=1
%NoSave
%Mem=1900MB
#P OB98/GEN NMR

erre ene a

0 1
  C      -81.740     -89.131    -166.812
  O      -82.082     -90.102    -165.846
  H      -81.422     -88.223    -166.294
  H      -82.604     -88.891    -167.437
  H      -80.915     -89.487    -167.435
  P      -82.647     -91.518    -166.342
  C      -81.320     -92.762    -164.510
  O      -82.601     -92.504    -165.078
  C      -80.934     -91.636    -163.544
  O      -81.941     -91.583    -162.503
  C      -79.567     -91.870    -162.884
  O      -78.686     -90.759    -163.022
  C      -79.935     -92.323    -161.475
  O      -78.943     -92.064    -160.503
  C      -81.277     -91.628    -161.226
  N      -82.114     -92.301    -160.235
  C      -82.239     -91.696    -158.987
  O      -81.710     -90.637    -158.659
  N      -83.024     -92.362    -158.081
  C      -83.668     -93.546    -158.290
  O      -84.361     -94.095    -157.442
  C      -83.474     -94.151    -159.618
  C      -82.719     -93.512    -160.514
  O      -82.020     -92.063    -167.583
  O      -84.215     -91.262    -166.541
  H      -79.109     -92.672    -159.752
  H      -84.418     -91.202    -167.494
  H      -83.135     -91.927    -157.179
  H      -83.959     -95.096    -159.815
  H      -82.556     -93.927    -161.505
  H      -81.123     -90.604    -160.886
  H      -80.095     -93.407    -161.493
  H      -79.027     -92.683    -163.386
  H      -80.965     -90.683    -164.081
  H      -80.597     -92.825    -165.329
  H      -81.341     -93.719    -163.977
  P      -78.075     -90.239    -164.401
  C      -77.198     -87.855    -163.710
  O      -76.906     -89.198    -164.078
  O      -79.064     -89.837    -165.444
  O      -77.267     -91.516    -164.965
  H      -77.322     -91.463    -165.943
  H      -76.284     -87.326    -163.537
  H      -77.787     -87.850    -162.817
  H      -77.742     -87.379    -164.499

 6  7  8  9  10  11  12  13  14  15  16  26  31  32  33  34  35 0
 6-311+G(2d,p)
 ****
 36  37 0
 6-311+G(2d,p)
 ****
 1  2  3  4  5  17  18  19  20  21  22  23  24  25 0
 3-21G
 ****
 27  28  29  30  38  39  40  41  42  43  44  45 0
 3-21G
 ****


