%nproc=1
%NoSave
%Mem=1900MB
#P OB98/GEN NMR

erre ene a

0 1
  C      263.477    -418.405    -422.911
  O      262.757    -419.501    -423.441
  H      263.851    -417.798    -423.740
  H      264.326    -418.763    -422.322
  H      262.824    -417.789    -422.287
  P      262.110    -420.510    -422.375
  C      259.881    -419.560    -423.337
  O      260.582    -420.055    -422.206
  C      258.372    -419.558    -423.072
  O      257.905    -420.937    -423.013
  C      257.975    -418.898    -421.741
  O      256.652    -418.355    -421.895
  C      257.929    -420.094    -420.804
  O      257.271    -419.772    -419.602
  C      257.265    -421.111    -421.730
  N      255.420    -424.693    -418.584
  C      255.015    -423.433    -418.844
  N      255.549    -422.542    -419.703
  C      256.601    -423.076    -420.351
  C      257.122    -424.348    -420.199
  C      256.488    -425.180    -419.259
  N      256.900    -426.462    -418.986
  N      258.210    -424.534    -421.034
  C      258.336    -423.392    -421.678
  N      257.394    -422.481    -421.292
  O      262.793    -420.075    -420.994
  O      262.305    -421.961    -422.663
  H      257.807    -419.148    -419.068
  H      263.567    -420.640    -420.814
  H      254.148    -423.091    -418.284
  H      259.094    -423.169    -422.420
  H      256.195    -420.903    -421.862
  H      258.940    -420.416    -420.534
  H      258.660    -418.106    -421.427
  H      257.860    -419.086    -423.921
  H      260.107    -420.203    -424.195
  H      260.215    -418.541    -423.554
  H      256.402    -426.988    -418.286
  H      257.707    -426.832    -419.469
  P      256.224    -417.078    -421.019
  C      255.632    -415.736    -423.187
  O      256.314    -415.768    -421.940
  O      257.495    -416.893    -420.057
  O      254.971    -417.229    -420.218
  H      257.211    -416.473    -419.223
  H      255.802    -414.793    -423.662
  H      254.583    -415.869    -423.023
  H      255.998    -416.522    -423.814

 6  7  8  9  10  11  12  13  14  15  25  28  32  33  34  35 0
 6-311+G(2d,p)
 ****
 36  37  40 0
 6-311+G(2d,p)
 ****
 1  2  3  4  5  16  17  18  19  20  21  22  23  24 0
 3-21G
 ****
 26  27  29  30  31  38  39 41  42  43  44  45  46  47  48 0
 3-21G
 ****


