%nproc=1
%NoSave
%Mem=1900MB
#P OB98/GEN NMR

erre ene a

0 1
  C      567.149    -713.820     207.725
  O      566.126    -713.104     207.033
  P      566.499    -712.495     205.596
  C      564.210    -712.573     204.306
  O      565.177    -711.810     205.009
  C      563.359    -713.417     205.277
  O      562.605    -712.517     206.133
  C      562.333    -714.323     204.622
  O      561.933    -715.333     205.559
  C      561.175    -713.366     204.396
  O      559.955    -714.051     204.174
  C      561.230    -712.483     205.662
  N      560.814    -711.087     205.427
  C      559.489    -710.836     205.059
  O      558.637    -711.734     204.905
  N      559.163    -709.538     204.812
  C      559.992    -708.459     204.944
  O      559.664    -707.333     204.628
  C      561.326    -708.758     205.469
  C      561.667    -710.025     205.679
  O      566.712    -713.784     204.682
  O      567.696    -711.610     205.617
  H      559.278    -713.366     203.992
  H      567.661    -713.926     204.524
  H      558.220    -709.359     204.485
  H      561.994    -707.926     205.659
  H      562.665    -710.268     206.052
  H      560.583    -712.886     206.452
  H      561.371    -712.759     203.506
  H      562.660    -714.792     203.692
  H      564.034    -713.997     205.923
  H      564.704    -713.213     203.584
  H      563.551    -711.908     203.742
  P      561.910    -716.865     205.067
  C      562.480    -717.978     207.312
  O      561.480    -717.731     206.337
  O      563.132    -717.321     204.339
  O      560.600    -716.911     204.140
  H      560.652    -717.699     203.554
  H      562.000    -718.095     208.287
  H      563.203    -717.152     207.370
  H      563.009    -718.892     207.058
  H      566.769    -714.169     208.662
  H      567.983    -713.173     207.898
  H      567.462    -714.655     207.134

 3  4  5  6  7  8  9  10  11  12  13  23  28  29  30  31  32 0
 6-311+G(2d,p)
 ****
 33  34 0
 6-311+G(2d,p)
 ****
 1  2  14  15  16  17  18  19  20  21  22  24  25  26  27 0
 3-21G
 ****
 35  36  37  38  39  40  41  42  43  44  45 0
 3-21G
 ****


