%nproc=1
%NoSave
%Mem=1900MB
#P OB98/GEN NMR

erre ene a

0 1
  C       16.540    -663.200    -177.203
  O       15.862    -664.426    -177.002
  P       16.661    -665.809    -177.116
  C       16.175    -666.398    -174.666
  O       17.181    -666.196    -175.649
  C       16.302    -667.799    -174.063
  O       17.677    -668.083    -173.729
  C       15.522    -667.990    -172.767
  O       14.139    -668.144    -173.032
  C       16.208    -669.221    -172.190
  O       15.686    -670.419    -172.789
  C       17.667    -669.000    -172.613
  N       19.566    -669.971    -167.982
  C       18.653    -670.623    -168.732
  N       18.164    -670.275    -169.941
  C       18.711    -669.115    -170.358
  C       19.629    -668.328    -169.683
  C       20.089    -668.807    -168.445
  N       21.059    -668.190    -167.698
  N       19.922    -667.194    -170.422
  C       19.186    -667.298    -171.512
  N       18.496    -668.473    -171.542
  O       17.704    -665.860    -178.188
  O       15.519    -666.893    -177.385
  H       16.264    -671.157    -172.510
  H       15.676    -667.328    -178.246
  H       18.266    -671.541    -168.306
  H       19.137    -666.562    -172.307
  H       18.136    -669.928    -172.965
  H       16.065    -669.314    -171.110
  H       15.689    -667.138    -172.097
  H       15.979    -668.522    -174.819
  H       15.199    -666.287    -175.142
  H       21.418    -668.689    -166.900
  H       21.665    -667.504    -168.159
  H       16.278    -665.638    -173.879
  P       13.068    -667.342    -172.163
  C       12.473    -665.695    -174.039
  O       13.019    -665.846    -172.743
  O       13.224    -667.444    -170.676
  O       11.664    -667.950    -172.637
  H       11.036    -667.930    -171.884
  H       13.213    -665.997    -174.786
  H       12.219    -664.645    -174.193
  H       11.573    -666.300    -174.155
  H       15.852    -662.389    -177.088
  H       16.955    -663.179    -178.189
  H       17.326    -663.105    -176.483

 3  4  5  6  7  8  9  10  11  12  22  25  29  30  31  32 0
 6-311+G(2d,p)
 ****
 33  36  37 0
 6-311+G(2d,p)
 ****
 1  2  13  14  15  16  17  18  19  20  21  23  24  26 0
 3-21G
 ****
 27  28  34  35  38  39  40  41  42  43  44  45  46  47  48 0
 3-21G
 ****


