%nproc=1
%NoSave
%Mem=1900MB
#P OB98/GEN NMR

erre ene a

0 1
  C     -910.117     523.499     172.949
  O     -911.300     523.676     172.189
  P     -911.688     522.535     171.127
  C     -911.445     522.183     168.569
  O     -911.100     522.972     169.694
  C     -911.100     522.922     167.267
  O     -911.898     524.127     167.170
  C     -909.625     523.337     167.175
  O     -909.196     523.276     165.802
  C     -909.644     524.803     167.575
  O     -908.513     525.500     167.062
  C     -910.987     525.241     166.995
  N     -911.138     530.293     166.770
  C     -910.751     529.389     165.812
  N     -910.240     529.900     164.663
  N     -910.844     528.082     165.952
  C     -911.353     527.709     167.152
  C     -911.789     528.526     168.181
  C     -911.665     529.952     168.012
  O     -911.972     530.813     168.840
  N     -912.277     527.786     169.222
  C     -912.097     526.521     168.855
  N     -911.510     526.437     167.616
  O     -913.274     522.743     170.956
  O     -911.373     521.140     171.560
  H     -908.640     526.456     167.270
  H     -913.749     522.025     171.424
  H     -911.033     531.280     166.621
  H     -912.352     525.658     169.446
  H     -910.911     525.430     165.913
  H     -909.633     524.896     168.668
  H     -910.090     530.885     164.510
  H     -908.946     522.745     167.789
  H     -909.910     529.258     163.957
  H     -911.376     522.280     166.423
  H     -912.517     521.983     168.585
  H     -910.915     521.229     168.608
  P     -907.631     523.016     165.564
  C     -905.531     524.500     165.996
  O     -906.914     524.437     165.735
  O     -907.546     522.733     163.986
  O     -907.061     521.897     166.376
  H     -906.759     522.178     163.784
  H     -905.029     524.990     165.163
  H     -905.095     523.494     166.134
  H     -905.367     525.072     166.903
  H     -909.989     524.332     173.609
  H     -909.276     523.433     172.290
  H     -910.193     522.598     173.522

 3  4  5  6  7  8  9  10  11  12  23  26  30  31 0
 6-311+G(2d,p)
 ****
 33  35  36  37  38 0
 6-311+G(2d,p)
 ****
 1  2  13  14  15  16  17  18  19  20  21  22  24  25 0
 3-21G
 ****
 27  28  29  32  34  39  40  41  42  43  44  45  46  47  48  49 0
 3-21G
 ****


