%nproc=1
%NoSave
%Mem=1900MB
#P OB98/GEN NMR

erre ene a

0 1
  C     -127.148     275.190    -473.998
  O     -127.956     276.363    -474.117
  P     -127.185     277.738    -474.455
  C     -128.400     277.774    -476.757
  O     -127.170     277.898    -476.052
  C     -128.439     278.730    -477.945
  O     -128.324     280.099    -477.514
  C     -127.305     278.538    -478.944
  O     -127.553     277.450    -479.819
  C     -127.346     279.859    -479.702
  O     -128.362     279.805    -480.720
  C     -127.740     280.855    -478.601
  N     -125.280     285.291    -478.725
  C     -126.409     284.888    -479.406
  N     -126.986     285.801    -480.220
  N     -126.934     283.692    -479.306
  C     -126.272     282.891    -478.436
  C     -125.143     283.171    -477.702
  C     -124.557     284.489    -477.851
  O     -123.541     284.886    -477.293
  N     -124.772     282.109    -476.923
  C     -125.689     281.192    -477.160
  N     -126.616     281.615    -478.086
  O     -125.663     277.388    -474.105
  O     -127.684     278.914    -473.684
  H     -128.347     280.664    -481.184
  H     -125.179     278.203    -473.862
  H     -124.915     286.217    -478.844
  H     -125.732     280.220    -476.691
  H     -128.500     281.566    -478.952
  H     -126.407     280.087    -480.205
  H     -126.676     286.762    -480.292
  H     -126.342     278.432    -478.427
  H     -127.834     285.538    -480.704
  H     -129.406     278.607    -478.452
  H     -129.235     277.993    -476.089
  H     -128.516     276.736    -477.087
  P     -126.519     276.222    -479.780
  C     -128.520     274.618    -479.388
  O     -127.255     275.065    -478.952
  O     -125.376     276.747    -478.785
  O     -125.970     275.834    -481.114
  H     -124.522     276.332    -479.013
  H     -128.545     274.502    -480.480
  H     -129.291     275.336    -479.083
  H     -128.736     273.650    -478.930
  H     -127.771     274.349    -473.774
  H     -126.436     275.326    -473.211
  H     -126.633     275.017    -474.920

 3  4  5  6  7  8  9  10  11  12  23  26  30  31  33  0
 6-311+G(2d,p)
 ****
 35  36  37  38 0
 6-311+G(2d,p)
 ****
 1  2  13  14  15  16  17  18  19  20  21  22  24  25  27  28  29 0
 3-21G
 ****
 32  34  39  40  41  42  43  44  45  46  47  48  49 0
 3-21G
 ****


