%nproc=1
%NoSave
%Mem=1900MB
#P OB98/GEN NMR

erre ene a

0 1
  C       72.604    -452.840     222.620
  O       73.810    -452.903     221.853
  P       74.310    -451.551     221.147
  C       75.948    -451.138     223.130
  O       74.954    -450.602     222.268
  C       77.188    -450.248     223.124
  O       76.891    -448.934     223.642
  C       78.311    -450.775     224.005
  O       78.997    -451.830     223.357
  C       79.162    -449.527     224.218
  O       80.169    -449.388     223.204
  C       78.125    -448.380     224.129
  N       77.935    -447.696     225.396
  C       78.599    -446.470     225.539
  O       79.312    -446.046     224.629
  N       78.456    -445.778     226.713
  C       77.735    -446.276     227.677
  N       77.636    -445.546     228.816
  C       77.041    -447.575     227.577
  C       77.185    -448.227     226.423
  O       72.947    -450.809     220.767
  O       75.166    -451.780     219.945
  H       79.680    -449.364     222.352
  H       73.057    -450.297     219.950
  H       76.463    -447.953     228.404
  H       76.711    -449.191     226.258
  H       78.449    -447.636     223.392
  H       79.685    -449.564     225.185
  H       77.903    -451.118     224.970
  H       77.540    -450.146     222.089
  H       78.127    -444.660     228.848
  H       76.213    -452.153     222.817
  H       77.110    -445.841     229.626
  H       75.526    -451.224     224.144
  P       79.611    -452.993     224.265
  C       77.430    -454.348     224.310
  O       78.355    -453.602     225.067
  O       80.358    -452.157     225.416
  O       80.520    -453.974     223.607
  H       80.863    -452.761     225.992
  H       76.754    -454.872     224.990
  H       77.949    -455.091     223.689
  H       76.838    -453.678     223.678
  H       72.391    -453.805     223.030
  H       71.796    -452.535     221.989
  H       72.723    -452.133     223.414

 3  4  5  6  7  8  9  10  11  12  13  21  23  27  28  29  30  32 0
 6-311+G(2d,p)
 ****
 34  35 0
 6-311+G(2d,p)
 ****
 1  2  14  15  16  17  18  19  20  22  24  25  26 0
 3-21G
 ****
 31  33  36  37  38  39  40  41  42  43  44  45  46 0
 3-21G
 ****


