%nproc=1
%NoSave
%Mem=1900MB
#P OB98/GEN NMR

erre ene a

0 1
  C      120.672     -73.891     -69.701
  O      121.171     -72.977     -70.658
  H      121.478     -74.143     -69.006
  H      120.331     -74.809     -70.186
  H      119.852     -73.441     -69.136
  P      120.202     -72.510     -71.844
  C      121.659     -73.616     -73.673
  O      120.391     -73.574     -73.027
  C      121.497     -73.969     -75.150
  O      120.988     -75.310     -75.292
  C      120.520     -73.072     -75.901
  O      121.101     -71.811     -76.164
  C      120.238     -73.930     -77.124
  O      121.311     -73.842     -78.074
  C      120.181     -75.344     -76.493
  N      118.826     -75.794     -76.195
  C      118.213     -76.589     -77.171
  O      118.806     -76.858     -78.214
  N      116.935     -77.037     -76.940
  C      116.341     -76.760     -75.824
  N      115.079     -77.238     -75.656
  C      116.965     -75.955     -74.756
  C      118.190     -75.500     -75.010
  O      120.324     -71.080     -72.273
  O      118.734     -72.838     -71.294
  H      121.219     -72.970     -78.507
  H      118.346     -72.052     -70.866
  H      116.435     -75.756     -73.836
  H      118.720     -74.900     -74.277
  H      120.644     -76.080     -77.163
  H      119.328     -73.628     -77.641
  H      119.590     -72.965     -75.333
  H      122.492     -73.943     -75.615
  H      114.700     -77.803     -76.410
  H      122.254     -74.383     -73.166
  H      114.588     -77.224     -74.774
  H      122.177     -72.656     -73.570
  P      120.288     -70.448     -75.938
  C      119.040     -70.732     -78.167
  O      118.918     -70.616     -76.758
  O      121.048     -69.199     -76.232
  O      119.795     -70.552     -74.419
  H      120.540     -70.347     -73.800
  H      118.068     -70.838     -78.602
  H      119.633     -71.591     -78.404
  H      119.511     -69.854     -78.558

 6  7  8  9  10  11  12  13  14  15  16  26  30  31  32  33  35 0
 6-311+G(2d,p)
 ****
 37  38 0
 6-311+G(2d,p)
 ****
 1  2  3  4  5  17  18  19  20  21  22  23  24  25 0
 3-21G
 ****
 27  28  29  34  36  39  40  41  42  43  44  45  46 0
 3-21G
 ****


