%nproc=1
%NoSave
%Mem=1900MB
#P OB98/GEN NMR

erre ene a

0 1
  C     -545.946    -455.110    -133.226
  O     -545.019    -454.685    -134.229
  P     -545.253    -455.143    -135.746
  C     -543.880    -453.488    -137.167
  O     -543.936    -454.789    -136.598
  C     -543.295    -452.480    -136.167
  O     -541.884    -452.758    -135.932
  C     -543.391    -451.034    -136.673
  O     -543.579    -450.130    -135.570
  C     -542.007    -450.784    -137.239
  O     -541.719    -449.390    -137.328
  C     -541.146    -451.564    -136.248
  N     -536.201    -450.231    -136.386
  C     -537.246    -449.734    -135.696
  N     -538.530    -450.152    -135.691
  C     -538.685    -451.214    -136.496
  C     -537.709    -451.840    -137.261
  C     -536.414    -451.304    -137.194
  N     -535.357    -451.794    -137.925
  N     -538.244    -452.898    -137.967
  C     -539.528    -452.876    -137.677
  N     -539.838    -451.902    -136.766
  O     -546.540    -454.709    -136.364
  O     -545.175    -456.743    -135.646
  H     -540.822    -449.299    -137.702
  H     -545.875    -457.133    -136.214
  H     -537.022    -448.879    -135.062
  H     -540.276    -453.532    -138.103
  H     -540.997    -451.006    -135.317
  H     -541.937    -451.212    -138.248
  H     -544.177    -450.857    -137.408
  H     -543.811    -452.591    -135.209
  H     -544.883    -453.177    -137.472
  H     -534.490    -451.274    -137.897
  H     -535.535    -452.492    -138.633
  H     -543.287    -453.528    -138.086
  P     -544.987    -449.347    -135.535
  C     -545.765    -449.502    -133.045
  O     -545.122    -448.759    -134.051
  O     -546.135    -450.159    -136.030
  O     -544.672    -448.065    -136.442
  H     -543.860    -447.585    -136.202
  H     -545.635    -448.996    -132.088
  H     -545.331    -450.506    -132.961
  H     -546.834    -449.586    -133.256
  H     -545.647    -454.720    -132.276
  H     -545.961    -456.179    -133.184
  H     -546.924    -454.749    -133.468

 3  4  5  6  7  8  9  10  11  12  22  25  29  30  31  32 0
 6-311+G(2d,p)
 ****
 33  36  37 0
 6-311+G(2d,p)
 ****
 1  2  13  14  15  16  17  18  19  20  21  23  24  26 0
 3-21G
 ****
 27  28  34  35  38  39  40  41  42  43  44  45  46  47  48 0
 3-21G
 ****


