%nproc=1
%NoSave
%Mem=1900MB
#P OB98/GEN NMR

erre ene a

0 1
  C      129.653    -105.533     -48.995
  O      128.822    -105.467     -50.131
  H      129.155    -106.144     -48.236
  H      129.812    -104.535     -48.578
  H      130.611    -105.994     -49.242
  P      129.286    -104.591     -51.394
  C      130.611    -106.184     -52.909
  O      129.335    -105.624     -52.630
  C      130.859    -106.264     -54.415
  O      132.176    -106.827     -54.663
  C      129.837    -107.135     -55.164
  O      129.378    -106.447     -56.330
  C      130.644    -108.356     -55.576
  O      130.101    -109.025     -56.712
  C      132.031    -107.734     -55.769
  N      133.082    -108.741     -55.806
  C      133.532    -109.120     -57.074
  O      133.046    -108.605     -58.083
  N      134.476    -110.108     -57.175
  C      134.901    -110.701     -56.104
  N      135.816    -111.693     -56.275
  C      134.434    -110.352     -54.746
  C      133.536    -109.370     -54.670
  O      130.533    -103.802     -51.181
  O      128.019    -103.681     -51.749
  H      130.428    -109.951     -56.713
  H      128.324    -102.893     -52.257
  H      134.817    -110.882     -53.885
  H      133.134    -109.046     -53.716
  H      132.074    -107.149     -56.697
  H      130.669    -109.071     -54.744
  H      128.979    -107.410     -54.553
  H      130.881    -105.244     -54.819
  H      136.103    -111.904     -57.223
  H      130.662    -107.182     -52.458
  H      136.200    -112.241     -55.520
  H      131.376    -105.545     -52.456
  P      128.020    -105.607     -56.169
  C      129.052    -103.337     -55.451
  O      128.357    -104.064     -56.453
  O      127.739    -105.660     -54.595
  O      126.879    -106.167     -56.951
  H      126.961    -106.222     -54.416
  H      129.203    -102.330     -55.781
  H      130.000    -103.799     -55.268
  H      128.477    -103.334     -54.549

 6  7  8  9  10  11  12  13  14  15  16  26  30  31  32  33  35 0
 6-311+G(2d,p)
 ****
 37  38 0
 6-311+G(2d,p)
 ****
 1  2  3  4  5  17  18  19  20  21  22  23  24  25 0
 3-21G
 ****
 27  28  29  34  36  39  40  41  42  43  44  45  46 0
 3-21G
 ****


