%nproc=1
%NoSave
%Mem=1900MB
#P OB98/GEN NMR

erre ene a

0 1
  C      -20.360     660.948     520.135
  O      -21.312     661.208     519.115
  P      -21.400     662.655     518.405
  C      -22.274     661.734     516.143
  O      -21.194     662.356     516.839
  C      -21.739     660.699     515.167
  O      -21.103     659.611     515.892
  C      -22.804     660.038     514.289
  O      -23.204     660.912     513.245
  C      -22.061     658.774     513.849
  O      -21.160     659.091     512.764
  C      -21.253     658.407     515.115
  N      -21.889     657.348     515.899
  C      -21.872     656.073     515.345
  O      -21.347     655.860     514.235
  N      -22.430     655.026     516.049
  C      -22.983     655.253     517.206
  N      -23.459     654.183     517.899
  C      -23.067     656.600     517.805
  C      -22.501     657.585     517.103
  O      -20.471     663.683     518.964
  O      -22.937     663.048     518.488
  H      -21.690     659.549     512.095
  H      -23.185     663.534     519.323
  H      -23.535     656.748     518.773
  H      -22.499     658.604     517.486
  H      -20.237     658.085     514.838
  H      -22.739     657.977     513.508
  H      -23.677     659.752     514.891
  H      -20.965     661.181     514.534
  H      -23.209     653.271     517.536
  H      -22.819     662.507     515.602
  H      -23.619     654.232     518.899
  H      -22.950     661.270     516.887
  P      -24.668     661.586     513.399
  C      -23.595     663.961     513.512
  O      -24.421     662.986     514.148
  O      -25.398     660.676     514.488
  O      -25.440     661.679     512.114
  H      -26.001     660.044     514.048
  H      -23.720     664.912     514.028
  H      -23.878     664.078     512.458
  H      -22.549     663.655     513.586
  H      -20.465     659.938     520.472
  H      -20.524     661.616     520.955
  H      -19.373     661.094     519.748

 3  4  5  6  7  8  9  10  11  12  13  23  27  28  29  30  32 0
 6-311+G(2d,p)
 ****
 34  35 0
 6-311+G(2d,p)
 ****
 1  2  14  15  16  17  18  19  20  21  22  24  25  26 0
 3-21G
 ****
 31  33  36  37  38  39  40  41  42  43  44  45  46 0
 3-21G
 ****


