%nproc=1
%NoSave
%Mem=1900MB
#P OB98/GEN NMR

erre ene a

0 1
  C     -282.203     286.671     370.235
  O     -281.467     286.358     369.070
  H     -282.910     285.859     370.434
  H     -282.764     287.600     370.092
  H     -281.528     286.768     371.092
  P     -280.352     287.423     368.621
  C     -281.792     288.524     366.775
  O     -281.197     288.665     368.055
  C     -280.893     289.133     365.699
  O     -281.508     289.025     364.400
  C     -280.599     290.618     365.893
  O     -279.562     290.808     366.841
  C     -280.152     291.004     364.490
  O     -278.785     290.606     364.287
  C     -281.084     290.155     363.598
  N     -283.002     293.050     359.817
  C     -281.735     292.666     360.098
  N     -281.295     291.934     361.145
  C     -282.313     291.591     361.949
  C     -283.650     291.908     361.787
  C     -283.991     292.673     360.652
  N     -285.280     293.054     360.363
  N     -284.408     291.388     362.819
  C     -283.549     290.718     363.557
  N     -282.260     290.838     363.094
  O     -279.273     286.896     367.739
  O     -279.860     287.966     370.044
  H     -278.743     289.636     364.374
  H     -280.612     288.050     370.658
  H     -280.975     292.984     359.389
  H     -283.803     290.120     364.424
  H     -280.555     289.761     362.720
  H     -280.196     292.085     364.319
  H     -281.504     291.176     366.147
  H     -279.962     288.552     365.669
  H     -282.774     289.007     366.754
  H     -285.412     293.733     359.634
  H     -285.998     292.875     361.055
  H     -281.926     287.454     366.590
  P     -278.916     292.260     367.069
  C     -276.638     291.477     366.166
  O     -277.719     292.396     366.012
  O     -278.540     292.568     368.477
  O     -280.014     293.276     366.507
  H     -280.053     294.072     367.066
  H     -275.903     291.661     365.410
  H     -277.004     290.476     366.071
  H     -276.196     291.605     367.132

 6  7  8  9  10  11  12  13  14  15  25  28  32  33  34  35 0
 6-311+G(2d,p)
 ****
 36  39  40 0
 6-311+G(2d,p)
 ****
 1  2  3  4  5  16  17  18  19  20  21  22  23  24 0
 3-21G
 ****
 26  27  29  30  31  37  38  41  42  43  44  45  46  47 0
 3-21G
 ****
 48 0
 3-21G
 ****


