%nproc=1
%NoSave
%Mem=1900MB
#P OB98/GEN NMR

erre ene a

0 1
  C     -520.045    -312.965      73.136
  O     -518.822    -313.612      73.464
  P     -518.739    -315.205      73.229
  C     -518.992    -316.617      75.386
  O     -519.648    -315.859      74.370
  C     -518.260    -315.693      76.352
  O     -519.141    -314.632      76.777
  C     -517.797    -316.366      77.642
  O     -516.571    -317.080      77.454
  C     -517.596    -315.163      78.545
  O     -516.307    -314.565      78.279
  C     -518.725    -314.223      78.101
  N     -520.477    -313.063      82.722
  C     -519.223    -312.865      82.164
  N     -518.314    -312.249      82.955
  N     -518.890    -313.245      80.959
  C     -519.913    -313.818      80.274
  C     -521.199    -314.072      80.708
  C     -521.538    -313.697      82.067
  O     -522.607    -313.907      82.627
  N     -521.954    -314.654      79.726
  C     -521.140    -314.716      78.686
  N     -519.881    -314.252      78.977
  O     -517.244    -315.559      73.681
  O     -519.019    -315.649      71.826
  H     -515.635    -315.200      78.569
  H     -516.949    -316.375      73.224
  H     -520.685    -312.744      83.645
  H     -521.422    -315.087      77.702
  H     -518.370    -313.189      78.019
  H     -517.605    -315.426      79.612
  H     -518.550    -311.820      83.840
  H     -518.579    -317.007      78.055
  H     -517.402    -312.055      82.556
  H     -517.407    -315.243      75.826
  H     -518.263    -317.285      74.918
  H     -519.727    -317.225      75.916
  P     -516.302    -318.306      78.456
  C     -514.447    -317.742      80.180
  O     -515.813    -317.632      79.824
  O     -514.981    -318.973      77.849
  O     -517.432    -319.274      78.563
  H     -514.930    -319.922      78.095
  H     -513.794    -317.694      79.310
  H     -514.280    -318.678      80.710
  H     -514.197    -316.917      80.854
  H     -519.961    -311.918      73.340
  H     -520.837    -313.380      73.724
  H     -520.258    -313.110      72.097

 3  4  5  6  7  8  9  10  11  12  23  26  30  31  33  0
 6-311+G(2d,p)
 ****
 35  36  37  38 0
 6-311+G(2d,p)
 ****
 1  2  13  14  15  16  17  18  19  20  21  22  24  25  27  28  29 0
 3-21G
 ****
 32  34  39  40  41  42  43  44  45  46  47  48  49 0
 3-21G
 ****


