%nproc=1
%NoSave
%Mem=1900MB
#P OB98/GEN NMR

erre ene a

0 1
  C      811.268    -360.184     -53.335
  O      811.817    -359.319     -52.360
  H      810.526    -359.629     -53.918
  H      810.772    -361.034     -52.859
  H      812.049    -360.539     -54.010
  P      812.928    -359.904     -51.366
  C      814.740    -358.361     -52.370
  O      814.333    -359.699     -52.116
  C      815.875    -357.968     -51.432
  O      816.913    -358.967     -51.449
  C      816.543    -356.636     -51.792
  O      815.771    -355.549     -51.298
  C      817.870    -356.805     -51.071
  O      817.694    -356.575     -49.659
  C      818.192    -358.282     -51.341
  N      822.807    -358.289     -53.443
  C      822.413    -357.919     -52.170
  N      823.380    -357.440     -51.359
  N      821.178    -357.988     -51.743
  C      820.309    -358.420     -52.687
  C      820.573    -358.804     -53.979
  C      821.953    -358.771     -54.425
  O      822.356    -359.114     -55.542
  N      819.428    -359.121     -54.664
  C      818.473    -358.970     -53.770
  N      818.955    -358.534     -52.557
  O      812.707    -361.299     -50.866
  O      812.986    -358.840     -50.173
  H      818.572    -356.694     -49.250
  H      812.387    -359.094     -49.445
  H      823.771    -358.194     -53.716
  H      817.418    -359.164     -53.943
  H      818.741    -358.744     -50.517
  H      818.632    -356.103     -51.416
  H      824.262    -357.098     -51.718
  H      816.735    -356.559     -52.862
  H      823.100    -357.113     -50.439
  H      815.467    -357.943     -50.410
  H      813.870    -357.715     -52.216
  H      815.071    -358.259     -53.412
  P      815.184    -354.440     -52.303
  C      812.727    -355.211     -52.033
  O      813.848    -355.095     -52.905
  O      816.151    -353.945     -53.326
  O      814.606    -353.298     -51.346
  H      815.275    -352.612     -51.102
  H      811.911    -355.661     -52.559
  H      812.439    -354.239     -51.692
  H      812.990    -355.820     -51.194

 6  7  8  9  10  11  12  13  14  15  26  29  33  34 0
 6-311+G(2d,p)
 ****
 36  38  39  40  41 0
 6-311+G(2d,p)
 ****
 1  2  3  4  5  16  17  18  19  20  21  22  23  24  25 0
 3-21G
 ****
 27  28  30  31  32  35  37  42  43  44  45  46  47 0
 3-21G
 ****
 48  49 0
 3-21G
 ****


