%nproc=1
%NoSave
%Mem=1900MB
#P OB98/GEN NMR

erre ene a

0 1
  C      384.594     -77.950      68.764
  O      385.017     -79.251      68.403
  H      383.546     -77.979      69.072
  H      385.199     -77.606      69.606
  H      384.722     -77.255      67.930
  P      384.480     -79.837      67.008
  C      382.129     -80.462      66.104
  O      382.938     -80.230      67.247
  C      381.064     -81.516      66.412
  O      381.734     -82.762      66.772
  C      380.116     -81.142      67.563
  O      378.796     -81.594      67.231
  C      380.639     -81.968      68.726
  O      379.643     -82.241      69.704
  C      381.147     -83.215      68.001
  N      381.720     -87.152      71.177
  C      380.738     -86.830      70.304
  N      380.689     -85.785      69.452
  C      381.831     -85.072      69.509
  C      382.915     -85.278      70.342
  C      382.828     -86.372      71.223
  N      383.787     -86.670      72.162
  N      383.870     -84.295      70.146
  C      383.349     -83.496      69.229
  N      382.122     -83.924      68.817
  O      385.223     -81.258      66.924
  O      384.751     -78.993      65.808
  H      378.791     -82.401      69.249
  H      386.095     -81.146      66.502
  H      379.874     -87.491      70.297
  H      383.810     -82.588      68.859
  H      380.343     -83.920      67.765
  H      381.459     -81.435      69.213
  H      380.093     -80.071      67.786
  H      380.497     -81.715      65.492
  H      382.759     -80.825      65.282
  H      383.585     -87.406      72.822
  H      384.566     -86.033      72.282
  H      381.657     -79.521      65.796
  P      377.764     -80.503      66.660
  C      376.488     -78.427      67.580
  O      377.332     -79.536      67.865
  O      376.447     -81.361      66.385
  O      378.241     -79.807      65.427
  H      375.960     -80.998      65.616
  H      376.294     -77.886      68.482
  H      375.565     -78.778      67.169
  H      376.971     -77.783      66.875

 6  7  8  9  10  11  12  13  14  15  25  28  32  33  34  35 0
 6-311+G(2d,p)
 ****
 36  39  40 0
 6-311+G(2d,p)
 ****
 1  2  3  4  5  16  17  18  19  20  21  22  23  24 0
 3-21G
 ****
 26  27  29  30  31  37  38  41  42  43  44  45  46  47 0
 3-21G
 ****
 48 0
 3-21G
 ****


