%nproc=1
%NoSave
%Mem=1900MB
#P OB98/GEN NMR

erre ene a

0 1
  C       67.524     819.155    -224.058
  O       67.627     817.986    -224.855
  P       68.350     818.120    -226.280
  C       70.695     818.051    -225.194
  O       69.792     818.784    -226.006
  C       72.123     818.173    -225.721
  O       72.444     819.580    -225.903
  C       73.196     817.561    -224.806
  O       74.135     816.825    -225.604
  C       73.913     818.776    -224.248
  O       75.252     818.478    -223.861
  C       73.798     819.742    -225.434
  N       76.950     823.599    -226.306
  C       76.805     822.397    -226.989
  N       77.671     822.179    -228.011
  N       75.909     821.496    -226.697
  C       75.102     821.866    -225.677
  C       75.138     823.021    -224.926
  C       76.179     823.983    -225.227
  O       76.412     825.020    -224.603
  N       74.132     823.043    -223.986
  C       73.501     821.894    -224.149
  N       74.075     821.125    -225.132
  O       67.518     819.294    -226.996
  O       68.355     816.879    -227.114
  H       75.699     818.097    -224.641
  H       67.166     818.979    -227.845
  H       77.667     824.250    -226.569
  H       72.648     821.576    -223.579
  H       74.477     819.429    -226.239
  H       73.368     819.149    -223.372
  H       78.359     822.854    -228.318
  H       72.792     816.918    -224.018
  H       77.566     821.331    -228.535
  H       72.165     817.709    -226.728
  H       70.402     816.990    -225.180
  H       70.651     818.441    -224.170
  P       74.844     815.573    -224.879
  C       73.743     813.855    -226.503
  O       73.898     814.314    -225.174
  O       74.616     815.862    -223.323
  O       76.283     815.408    -225.237
  H       75.296     815.417    -222.784
  H       74.456     814.337    -227.185
  H       72.727     814.057    -226.846
  H       73.916     812.770    -226.537
  H       67.023     818.919    -223.142
  H       66.967     819.900    -224.588
  H       68.504     819.528    -223.843

 3  4  5  6  7  8  9  10  11  12  23  26  30  31  33  0
 6-311+G(2d,p)
 ****
 35  36  37  38 0
 6-311+G(2d,p)
 ****
 1  2  13  14  15  16  17  18  19  20  21  22  24  25  27  28  29 0
 3-21G
 ****
 32  34  39  40  41  42  43  44  45  46  47  48  49 0
 3-21G
 ****


