%nproc=1
%NoSave
%Mem=1900MB
#P OB98/GEN NMR

erre ene a

0 1
  C     -819.282    -571.405    -888.580
  O     -819.948    -572.610    -888.240
  P     -819.458    -573.953    -888.980
  C     -820.108    -575.172    -891.170
  O     -820.150    -573.966    -890.420
  C     -821.284    -575.216    -892.150
  O     -821.357    -573.987    -892.900
  C     -821.195    -576.316    -893.200
  O     -821.517    -577.584    -892.640
  C     -822.197    -575.809    -894.230
  O     -823.528    -576.095    -893.810
  C     -821.935    -574.288    -894.190
  N     -821.605    -571.877    -898.700
  C     -822.667    -572.196    -897.930
  N     -822.680    -572.861    -896.750
  C     -821.440    -573.197    -896.390
  C     -820.260    -572.946    -897.080
  C     -820.378    -572.268    -898.290
  N     -819.275    -571.939    -899.090
  N     -819.166    -573.474    -896.410
  C     -819.669    -574.000    -895.320
  N     -821.027    -573.846    -895.240
  O     -820.243    -575.103    -888.170
  O     -817.978    -574.172    -888.960
  H     -823.657    -577.072    -893.890
  H     -819.695    -575.916    -888.120
  H     -823.640    -571.887    -898.300
  H     -819.110    -574.504    -894.540
  H     -822.863    -573.705    -894.290
  H     -822.051    -576.256    -895.220
  H     -820.191    -576.360    -893.640
  H     -822.211    -575.317    -891.580
  H     -820.178    -576.034    -890.500
  H     -819.480    -571.569    -900.000
  H     -818.394    -572.357    -898.840
  H     -819.157    -575.229    -891.710
  P     -821.167    -578.881    -893.510
  C     -822.077    -579.775    -895.740
  O     -822.279    -578.861    -894.680
  O     -821.689    -580.060    -892.560
  O     -819.756    -578.987    -893.960
  H     -822.593    -579.880    -892.230
  H     -822.922    -579.697    -896.430
  H     -822.026    -580.803    -895.350
  H     -821.158    -579.536    -896.290
  H     -819.702    -570.595    -888.021
  H     -819.400    -571.215    -889.626
  H     -818.241    -571.496    -888.350

 3  4  5  6  7  8  9  10  11  12  22  25  29  30  31  32 0
 6-311+G(2d,p)
 ****
 33  36  37 0
 6-311+G(2d,p)
 ****
 1  2  13  14  15  16  17  18  19  20  21  23  24  26 0
 3-21G
 ****
 27  28  34  35  38  39  40  41  42  43  44  45  46  47  48 0
 3-21G
 ****


