%nproc=1
%NoSave
%Mem=1900MB
#P OB98/GEN NMR

erre ene a

0 1
  C     1104.096    -697.657     148.171
  O     1103.478    -697.888     149.408
  P     1104.351    -698.344     150.676
  C     1102.151    -698.694     151.972
  O     1103.402    -699.245     151.640
  C     1101.126    -699.799     152.110
  O     1100.870    -700.432     150.824
  C     1101.532    -700.931     153.022
  O     1101.382    -700.557     154.398
  C     1100.581    -702.049     152.578
  O     1099.285    -701.886     153.202
  C     1100.494    -701.800     151.083
  N     1100.606    -706.220     148.512
  C     1099.648    -705.672     149.303
  N     1099.716    -704.489     149.993
  C     1100.915    -703.886     149.787
  C     1101.975    -704.356     149.067
  C     1101.794    -705.597     148.352
  N     1102.719    -706.129     147.507
  N     1103.042    -703.475     149.126
  C     1102.631    -702.510     149.919
  N     1101.312    -702.684     150.292
  O     1105.097    -697.255     151.374
  O     1105.380    -699.430     150.055
  H     1098.799    -702.738     153.102
  H     1106.284    -699.104     150.194
  H     1098.734    -706.228     149.408
  H     1103.236    -701.660     150.223
  H     1099.463    -701.936     150.719
  H     1100.957    -703.043     152.844
  H     1102.553    -701.240     152.818
  H     1100.168    -699.382     152.442
  H     1101.850    -698.007     151.158
  H     1102.425    -706.913     146.951
  H     1103.446    -705.536     147.128
  H     1102.234    -698.129     152.913
  P     1102.452    -701.071     155.470
  C     1100.922    -700.065     157.307
  O     1101.678    -701.202     156.856
  O     1103.743    -700.299     155.558
  O     1102.705    -702.609     155.067
  H     1103.624    -702.836     155.285
  H     1101.629    -699.332     157.714
  H     1100.212    -700.405     158.038
  H     1100.384    -699.630     156.454
  H     1103.359    -697.364     147.453
  H     1104.579    -698.553     147.841
  H     1104.822    -696.878     148.275

 3  4  5  6  7  8  9  10  11  12  22  25  29  30  31  32 0
 6-311+G(2d,p)
 ****
 33  36  37 0
 6-311+G(2d,p)
 ****
 1  2  13  14  15  16  17  18  19  20  21  23  24  26 0
 3-21G
 ****
 27  28  34  35  38  39  40  41  42  43  44  45  46  47  48 0
 3-21G
 ****


