%nproc=1
%NoSave
%Mem=1900MB
#P OB98/GEN NMR

erre ene a

0 1
  C     -413.314     285.763     119.990
  O     -414.718     285.613     119.997
  H     -412.901     285.263     120.870
  H     -413.048     286.823     120.033
  H     -412.883     285.310     119.092
  P     -415.515     286.201     118.734
  C     -417.589     286.776     120.183
  O     -417.078     286.051     119.072
  C     -419.005     286.317     120.520
  O     -419.859     286.527     119.359
  C     -419.116     284.831     120.908
  O     -420.132     284.709     121.906
  C     -419.628     284.188     119.627
  O     -420.263     282.936     119.861
  C     -420.558     285.291     119.125
  N     -422.942     282.288     115.865
  C     -422.825     282.208     117.238
  N     -423.442     281.170     117.845
  N     -422.167     283.078     117.962
  C     -421.632     284.078     117.233
  C     -421.665     284.275     115.873
  C     -422.376     283.291     115.082
  O     -422.495     283.298     113.860
  N     -420.971     285.402     115.512
  C     -420.523     285.893     116.654
  N     -420.896     285.127     117.723
  O     -415.262     285.091     117.609
  O     -415.089     287.561     118.283
  H     -420.374     282.486     118.995
  H     -414.488     285.329     117.068
  H     -423.444     281.587     115.357
  H     -419.922     286.786     116.756
  H     -421.506     285.319     119.678
  H     -418.799     284.026     118.929
  H     -424.007     280.489     117.352
  H     -418.184     284.388     121.269
  H     -423.406     281.117     118.851
  H     -419.394     286.957     121.323
  H     -417.607     287.843     119.931
  H     -416.930     286.625     121.043
  P     -419.688     284.776     123.447
  C     -421.466     283.199     124.512
  O     -420.989     284.527     124.356
  O     -419.397     286.336     123.664
  O     -418.495     283.940     123.779
  H     -418.731     286.450     124.369
  H     -422.332     283.203     125.141
  H     -420.703     282.596     124.959
  H     -421.723     282.797     123.554

 6  7  8  9  10  11  12  13  14  15  26  29  33  34 0
 6-311+G(2d,p)
 ****
 36  38  39  40  41 0
 6-311+G(2d,p)
 ****
 1  2  3  4  5  16  17  18  19  20  21  22  23  24  25 0
 3-21G
 ****
 27  28  30  31  32  35  37  42  43  44  45  46  47 0
 3-21G
 ****
 48  49 0
 3-21G
 ****


