%nproc=1
%NoSave
%Mem=1900MB
#P OB98/GEN NMR

erre ene a

0 1
  C     -200.326    -714.242     126.213
  O     -201.333    -713.261     126.386
  H     -200.771    -715.127     125.755
  H     -199.913    -714.521     127.187
  H     -199.531    -713.866     125.564
  P     -200.869    -711.842     126.966
  C     -198.672    -710.552     126.484
  O     -199.770    -711.265     125.939
  C     -198.019    -709.667     125.418
  O     -197.490    -710.529     124.361
  C     -198.979    -708.660     124.762
  O     -198.231    -707.470     124.469
  C     -199.322    -709.331     123.436
  O     -199.788    -708.409     122.463
  C     -197.983    -709.996     123.109
  N     -196.938    -711.138     118.315
  C     -196.619    -710.016     119.067
  N     -195.911    -709.052     118.444
  N     -196.959    -709.859     120.317
  C     -197.639    -710.915     120.823
  C     -198.023    -712.083     120.189
  C     -197.655    -712.227     118.798
  O     -197.926    -713.185     118.075
  N     -198.724    -712.900     121.040
  C     -198.755    -712.237     122.188
  N     -198.117    -711.032     122.106
  O     -200.008    -712.253     128.254
  O     -201.976    -710.898     127.309
  H     -199.091    -707.730     122.327
  H     -200.571    -712.243     129.050
  H     -196.658    -711.199     117.356
  H     -199.241    -712.581     123.095
  H     -197.249    -709.271     122.729
  H     -200.107    -710.090     123.596
  H     -195.567    -709.123     117.499
  H     -199.851    -708.412     125.362
  H     -195.626    -708.236     118.987
  H     -197.159    -709.161     125.864
  H     -197.929    -711.267     126.864
  H     -199.023    -709.927     127.315
  P     -197.937    -706.449     125.672
  C     -196.523    -706.805     127.827
  O     -196.593    -706.923     126.410
  O     -199.082    -706.817     126.734
  O     -197.995    -705.003     125.279
  H     -199.294    -706.036     127.276
  H     -195.573    -707.159     128.168
  H     -197.302    -707.388     128.272
  H     -196.642    -705.779     128.106

 6  7  8  9  10  11  12  13  14  15  26  29  33  34 0
 6-311+G(2d,p)
 ****
 36  38  39  40  41 0
 6-311+G(2d,p)
 ****
 1  2  3  4  5  16  17  18  19  20  21  22  23  24  25 0
 3-21G
 ****
 27  28  30  31  32  35  37  42  43  44  45  46  47 0
 3-21G
 ****
 48  49 0
 3-21G
 ****


