%nproc=1
%NoSave
%Mem=1900MB
#P OB98/GEN NMR

erre ene a

0 1
  C     -749.217     549.097     283.814
  O     -750.161     548.577     282.878
  P     -751.654     548.265     283.369
  C     -752.645     550.204     282.003
  O     -752.519     549.616     283.292
  C     -754.104     550.518     281.642
  O     -754.893     549.299     281.586
  C     -754.807     551.468     282.621
  O     -755.694     552.285     281.847
  C     -755.585     550.512     283.499
  O     -756.633     551.154     284.208
  C     -756.027     549.475     282.459
  N     -756.441     548.220     283.064
  C     -757.814     547.998     283.195
  O     -758.610     548.888     282.902
  N     -758.237     546.784     283.680
  C     -757.367     545.938     284.134
  N     -757.827     544.739     284.587
  C     -755.920     546.215     284.175
  C     -755.528     547.350     283.606
  O     -751.760     547.523     284.660
  O     -752.250     547.398     282.161
  H     -757.220     550.469     284.601
  H     -752.869     546.730     282.523
  H     -755.240     545.512     284.639
  H     -754.490     547.640     283.581
  H     -756.851     549.861     281.848
  H     -754.911     550.056     284.235
  H     -754.118     552.114     283.174
  H     -754.111     550.956     280.635
  H     -758.826     544.573     284.575
  H     -752.228     549.524     281.260
  H     -757.206     544.004     284.910
  H     -752.028     551.111     281.963
  P     -755.115     553.595     281.127
  C     -756.151     553.385     278.752
  O     -754.998     553.289     279.559
  O     -753.575     553.565     281.588
  O     -755.738     554.892     281.522
  H     -753.218     554.472     281.558
  H     -755.841     553.424     277.704
  H     -756.720     554.291     278.981
  H     -756.781     552.504     278.901
  H     -748.277     549.247     283.326
  H     -749.094     548.403     284.619
  H     -749.573     550.030     284.198

 3  4  5  6  7  8  9  10  11  12  13  23  27  28  29  30  32 0
 6-311+G(2d,p)
 ****
 34  35 0
 6-311+G(2d,p)
 ****
 1  2  14  15  16  17  18  19  20  21  22  24  25  26 0
 3-21G
 ****
 31  33  36  37  38  39  40  41  42  43  44  45  46 0
 3-21G
 ****


