%nproc=1
%NoSave
%Mem=1900MB
#P OB98/GEN NMR

erre ene a

0 1
  C     -893.350    -398.121     -73.084
  O     -892.880    -398.622     -71.849
  H     -894.100    -398.808     -73.479
  H     -892.520    -398.062     -73.797
  H     -893.810    -397.143     -72.961
  P     -891.900    -397.716     -70.964
  C     -893.720    -397.014     -69.269
  O     -892.810    -396.588     -70.262
  C     -894.450    -395.825     -68.632
  O     -895.100    -395.062     -69.705
  C     -895.540    -396.203     -67.614
  O     -895.600    -395.145     -66.656
  C     -896.780    -396.235     -68.509
  O     -897.970    -396.302     -67.787
  C     -896.500    -394.972     -69.341
  N     -897.330    -394.811     -70.525
  C     -898.440    -393.968     -70.445
  O     -898.760    -393.324     -69.435
  N     -899.190    -393.838     -71.592
  C     -898.950    -394.472     -72.784
  O     -899.640    -394.318     -73.772
  C     -897.790    -395.375     -72.814
  C     -897.020    -395.497     -71.694
  O     -890.680    -397.204     -71.660
  O     -891.510    -398.668     -69.733
  H     -890.620    -399.039     -69.873
  H     -897.950    -397.098     -67.206
  H     -900.000    -393.231     -71.553
  H     -897.550    -395.888     -73.724
  H     -896.140    -396.129     -71.692
  H     -896.610    -394.071     -68.701
  H     -896.760    -397.130     -69.146
  H     -895.340    -397.158     -67.114
  H     -893.700    -395.161     -68.184
  H     -893.150    -397.556     -68.488
  H     -894.460    -397.710     -69.717
  P     -894.550    -394.962     -65.460
  C     -893.630    -392.699     -66.316
  O     -893.340    -394.045     -65.998
  O     -894.110    -396.238     -64.846
  O     -895.290    -394.014     -64.381
  H     -894.920    -394.190     -63.491
  H     -892.740    -392.214     -66.658
  H     -893.998    -392.198     -65.445
  H     -894.372    -392.666     -67.086

 6  7  8  9  10  11  12  13  14  15  16  27  31  32  33  34  35 0
 6-311+G(2d,p)
 ****
 36  37 0
 6-311+G(2d,p)
 ****
 1  2  3  4  5  17  18  19  20  21  22  23  24  25 0
 3-21G
 ****
 26  28  29  30  38  39  40  41  42  43  44  45 0
 3-21G
 ****


