%nproc=1
%NoSave
%Mem=1900MB
#P OB98/GEN NMR

erre ene a

0 1
  C      -23.239     -29.261      36.337
  O      -23.090     -29.993      35.137
  H      -23.961     -29.777      36.975
  H      -23.617     -28.261      36.116
  H      -22.286     -29.192      36.868
  P      -21.922     -29.519      34.145
  C      -22.368     -31.840      33.074
  O      -21.986     -30.488      32.868
  C      -22.390     -32.590      31.746
  O      -21.127     -32.437      31.062
  C      -22.622     -34.091      31.878
  O      -24.003     -34.402      32.009
  C      -22.075     -34.576      30.546
  O      -23.032     -34.312      29.501
  C      -20.838     -33.685      30.372
  N      -15.919     -34.554      29.513
  C      -16.867     -33.948      28.711
  N      -16.446     -33.520      27.501
  N      -18.116     -33.780      29.058
  C      -18.398     -34.267      30.290
  C      -17.546     -34.884      31.178
  C      -16.166     -35.056      30.785
  O      -15.281     -35.564      31.466
  N      -18.193     -35.231      32.334
  C      -19.438     -34.844      32.140
  N      -19.616     -34.258      30.911
  O      -20.585     -29.988      34.896
  O      -21.890     -28.059      33.845
  H      -22.620     -34.596      28.665
  H      -19.885     -29.326      34.734
  H      -14.974     -34.667      29.193
  H      -20.241     -34.961      32.852
  H      -20.643     -33.444      29.321
  H      -21.879     -35.649      30.537
  H      -15.511     -33.663      27.153
  H      -22.030     -34.520      32.694
  H      -17.114     -33.044      26.909
  H      -23.162     -32.134      31.114
  H      -23.368     -31.867      33.521
  H      -21.658     -32.310      33.761
  P      -24.388     -35.790      32.722
  C      -26.679     -34.770      33.397
  O      -25.991     -35.832      32.745
  O      -24.003     -35.526      34.254
  O      -23.706     -36.994      32.170
  H      -23.845     -36.376      34.709
  H      -27.734     -34.935      33.331
  H      -26.432     -33.842      32.925
  H      -26.388     -34.735      34.426

 6  7  8  9  10  11  12  13  14  15  26  29  33  34 0
 6-311+G(2d,p)
 ****
 36  38  39  40  41 0
 6-311+G(2d,p)
 ****
 1  2  3  4  5  16  17  18  19  20  21  22  23  24  25 0
 3-21G
 ****
 27  28  30  31  32  35  37  42  43  44  45  46  47 0
 3-21G
 ****
 48  49 0
 3-21G
 ****


