%nproc=1
%NoSave
%Mem=1900MB
#P OB98/GEN NMR

erre ene a

0 1
  C       68.663    -195.009     161.523
  O       69.375    -195.547     162.617
  P       69.188    -194.973     164.107
  C       71.129    -193.371     163.563
  O       70.596    -194.304     164.494
  C       72.327    -192.619     164.152
  O       72.838    -191.677     163.168
  C       72.022    -191.831     165.433
  O       73.208    -191.886     166.228
  C       71.795    -190.426     164.905
  O       71.927    -189.432     165.916
  C       72.841    -190.371     163.783
  N       72.553    -189.309     162.821
  C       73.578    -188.386     162.582
  O       74.630    -188.442     163.222
  N       73.366    -187.385     161.666
  C       72.195    -187.258     161.114
  N       72.045    -186.254     160.207
  C       71.052    -188.134     161.434
  C       71.302    -189.134     162.276
  O       68.660    -195.949     165.103
  O       68.246    -193.695     163.902
  H       72.775    -189.583     166.389
  H       67.304    -193.977     163.767
  H       70.082    -187.957     160.991
  H       70.526    -189.831     162.572
  H       73.842    -190.201     164.194
  H       70.784    -190.345     164.489
  H       71.165    -192.213     165.989
  H       73.121    -193.352     164.343
  H       72.861    -185.686     160.005
  H       70.343    -192.646     163.324
  H       71.209    -186.121     159.664
  H       71.405    -193.883     162.635
  P       73.139    -191.871     167.832
  C       74.277    -189.614     168.230
  O       74.392    -191.019     168.348
  O       72.988    -193.217     168.468
  O       71.887    -190.929     168.168
  H       71.615    -191.065     169.098
  H       75.036    -189.137     168.854
  H       73.287    -189.271     168.548
  H       74.441    -189.322     167.185
  H       68.933    -195.532     160.630
  H       68.904    -193.972     161.416
  H       67.612    -195.115     161.694

 3  4  5  6  7  8  9  10  11  12  13  23  27  28  29  30  32 0
 6-311+G(2d,p)
 ****
 34  35 0
 6-311+G(2d,p)
 ****
 1  2  14  15  16  17  18  19  20  21  22  24  25  26 0
 3-21G
 ****
 31  33  36  37  38  39  40  41  42  43  44  45  46 0
 3-21G
 ****


