%nproc=1
%NoSave
%Mem=1900MB
#P OB98/GEN NMR

erre ene a

0 1
  C      339.258     -87.344      78.289
  O      338.702     -86.911      77.066
  H      339.369     -88.431      78.259
  H      338.591     -87.085      79.115
  H      340.241     -86.892      78.447
  P      338.594     -85.329      76.823
  C      340.633     -84.530      75.428
  O      339.304     -85.030      75.413
  C      340.912     -83.724      74.158
  O      342.194     -83.060      74.299
  C      340.960     -84.578      72.887
  O      340.359     -83.841      71.819
  C      342.445     -84.736      72.618
  O      342.732     -84.987      71.242
  C      343.003     -83.414      73.161
  N      344.415     -83.532      73.514
  C      345.320     -83.645      72.455
  O      344.915     -83.652      71.291
  N      346.652     -83.808      72.735
  C      347.038     -83.934      73.967
  N      348.369     -84.123      74.180
  C      346.111     -83.890      75.114
  C      344.828     -83.679      74.818
  O      339.622     -84.719      77.886
  O      337.224     -84.752      76.960
  H      343.665     -85.288      71.172
  H      339.327     -83.843      78.202
  H      346.476     -84.025      76.121
  H      344.072     -83.638      75.593
  H      342.893     -82.615      72.414
  H      342.836     -85.580      73.201
  H      340.455     -85.541      72.995
  H      340.152     -82.938      74.072
  H      348.972     -84.166      73.366
  H      341.331     -85.372      75.474
  H      348.775     -84.278      75.091
  H      340.776     -83.904      76.315
  P      339.122     -84.535      71.072
  C      337.036     -83.366      72.089
  O      337.928     -83.468      70.986
  O      338.599     -85.606      72.139
  O      339.489     -85.181      69.775
  H      338.822     -86.508      71.842
  H      336.299     -82.617      71.884
  H      337.584     -83.096      72.967
  H      336.553     -84.308      72.246

 6  7  8  9  10  11  12  13  14  15  16  26  30  31  32  33  35 0
 6-311+G(2d,p)
 ****
 37  38 0
 6-311+G(2d,p)
 ****
 1  2  3  4  5  17  18  19  20  21  22  23  24  25 0
 3-21G
 ****
 27  28  29  34  36  39  40  41  42  43  44  45  46 0
 3-21G
 ****


