%nproc=1
%NoSave
%Mem=1900MB
#P OB98/GEN NMR

erre ene a

0 1
  C     -437.824     -72.900    -305.789
  O     -438.373     -73.846    -306.682
  H     -438.604     -72.195    -305.499
  H     -437.023     -72.344    -306.285
  H     -437.435     -73.385    -304.890
  P     -437.526     -75.156    -307.050
  C     -437.472     -74.421    -309.526
  O     -437.811     -75.445    -308.604
  C     -437.990     -74.773    -310.922
  O     -437.165     -75.854    -311.453
  C     -439.454     -75.252    -310.929
  O     -440.069     -74.823    -312.149
  C     -439.280     -76.757    -310.939
  O     -440.437     -77.420    -311.393
  C     -438.065     -76.909    -311.856
  N     -437.465     -78.233    -311.735
  C     -437.954     -79.221    -312.585
  O     -438.854     -79.031    -313.405
  N     -437.427     -80.470    -312.420
  C     -436.557     -80.846    -311.435
  O     -436.177     -81.996    -311.280
  C     -436.115     -79.771    -310.529
  C     -436.579     -78.531    -310.723
  O     -437.716     -76.332    -306.151
  O     -436.007     -74.649    -307.080
  H     -440.350     -78.378    -311.253
  H     -435.395     -75.398    -306.964
  H     -437.761     -81.193    -313.037
  H     -435.442     -80.036    -309.723
  H     -436.288     -77.719    -310.063
  H     -438.340     -76.729    -312.900
  H     -439.063     -77.123    -309.930
  H     -440.030     -74.891    -310.071
  H     -437.853     -73.913    -311.585
  H     -436.379     -74.327    -309.544
  H     -437.904     -73.472    -309.191
  P     -441.287     -73.771    -312.159
  C     -443.322     -75.242    -312.707
  O     -442.429     -74.241    -313.188
  O     -440.865     -72.346    -312.326
  O     -441.984     -73.965    -310.728
  H     -442.161     -73.090    -310.335
  H     -444.036     -75.478    -313.468
  H     -443.832     -74.878    -311.840
  H     -442.768     -76.121    -312.452

 6  7  8  9  10  11  12  13  14  15  16  26  31  32  33  34  35 0
 6-311+G(2d,p)
 ****
 36  37 0
 6-311+G(2d,p)
 ****
 1  2  3  4  5  17  18  19  20  21  22  23  24  25 0
 3-21G
 ****
 27  28  29  30  38  39  40  41  42  43  44  45 0
 3-21G
 ****


