%nproc=1
%NoSave
%Mem=1900MB
#P OB98/GEN NMR

erre ene a

0 1
  C      555.221    -816.386      82.447
  O      554.825    -817.743      82.502
  H      555.348    -816.020      83.469
  H      554.452    -815.782      81.955
  H      556.175    -816.282      81.921
  P      554.569    -818.519      81.117
  C      554.424    -820.822      82.300
  O      553.734    -819.823      81.553
  C      553.696    -821.082      83.618
  O      553.776    -819.948      84.504
  C      552.199    -821.364      83.485
  O      551.896    -822.646      82.954
  C      551.769    -821.215      84.934
  O      552.166    -822.389      85.677
  C      552.596    -819.979      85.357
  N      551.845    -818.731      85.245
  C      551.280    -818.228      86.428
  O      551.412    -818.830      87.491
  N      550.538    -817.073      86.360
  C      550.350    -816.479      85.218
  N      549.596    -815.335      85.214
  C      550.913    -816.992      83.947
  C      551.639    -818.099      84.035
  O      555.774    -818.774      80.274
  O      553.442    -817.651      80.377
  H      553.138    -822.425      85.645
  H      553.254    -818.083      79.507
  H      550.705    -816.475      83.023
  H      552.081    -818.537      83.146
  H      552.954    -820.088      86.398
  H      550.695    -821.102      85.054
  H      551.712    -820.576      82.894
  H      554.216    -821.916      84.116
  H      549.235    -815.018      86.100
  H      555.444    -820.471      82.478
  H      549.341    -814.858      84.366
  H      554.457    -821.755      81.730
  P      550.692    -822.733      81.892
  C      551.266    -825.141      81.025
  O      550.346    -824.289      81.723
  O      551.395    -822.332      80.511
  O      549.509    -821.867      82.214
  H      551.223    -821.388      80.303
  H      550.882    -826.140      81.005
  H      552.211    -825.132      81.527
  H      551.391    -824.786      80.023

 6  7  8  9  10  11  12  13  14  15  16  26  30  31  32  33  35 0
 6-311+G(2d,p)
 ****
 37  38 0
 6-311+G(2d,p)
 ****
 1  2  3  4  5  17  18  19  20  21  22  23  24  25 0
 3-21G
 ****
 27  28  29  34  36  39  40  41  42  43  44  45  46 0
 3-21G
 ****


