%nproc=1
%NoSave
%Mem=1900MB
#P OB98/GEN NMR

erre ene a

0 1
  C       60.057     -19.630      59.973
  O       59.460     -20.145      61.160
  P       58.392     -19.220      61.914
  C       56.694     -20.863      63.053
  O       57.839     -20.040      63.175
  C       57.074     -22.265      62.541
  O       58.078     -22.820      63.428
  C       55.939     -23.283      62.527
  O       56.303     -24.362      61.663
  C       55.940     -23.766      63.960
  O       55.250     -25.005      64.099
  C       57.446     -23.794      64.300
  N       57.742     -23.477      65.715
  C       57.658     -24.500      66.655
  O       57.349     -25.659      66.383
  N       57.903     -24.147      67.954
  C       58.257     -22.907      68.393
  O       58.380     -22.626      69.578
  C       58.469     -21.899      67.345
  C       58.196     -22.220      66.081
  O       57.156     -19.171      60.902
  O       58.905     -17.858      62.242
  H       55.512     -25.376      64.974
  H       57.119     -18.304      60.457
  H       57.779     -24.863      68.654
  H       58.816     -20.920      67.649
  H       58.329     -21.479      65.294
  H       57.879     -24.781      64.092
  H       55.427     -23.036      64.595
  H       54.968     -22.877      62.231
  H       57.526     -22.175      61.548
  H       55.972     -20.396      62.380
  H       56.200     -20.954      64.028
  P       55.759     -24.334      60.153
  C       57.910     -25.107      58.980
  O       56.589     -25.447      59.353
  O       55.689     -22.991      59.508
  O       54.308     -25.007      60.285
  H       53.769     -24.777      59.505
  H       58.512     -26.018      58.939
  H       58.363     -24.413      59.694
  H       57.896     -24.644      57.989
  H       60.745     -20.349      59.579
  H       60.579     -18.724      60.200
  H       59.295     -19.430      59.248

 3  4  5  6  7  8  9  10  11  12  13  23  28  29  30  31  32 0
 6-311+G(2d,p)
 ****
 33  34 0
 6-311+G(2d,p)
 ****
 1  2  14  15  16  17  18  19  20  21  22  24  25  26  27 0
 3-21G
 ****
 35  36  37  38  39  40  41  42  43  44  45 0
 3-21G
 ****


