%nproc=1
%NoSave
%Mem=1900MB
#P OB98/GEN NMR

erre ene a

0 1
  C      144.352     201.202     564.411
  O      145.729     201.497     564.319
  H      144.196     200.522     565.253
  H      144.022     200.707     563.492
  H      143.759     202.104     564.571
  P      146.192     202.734     563.413
  C      146.383     203.202     560.878
  O      145.874     202.341     561.884
  C      146.411     202.508     559.519
  O      147.185     201.289     559.605
  C      144.990     202.093     559.091
  O      144.837     202.059     557.679
  C      144.874     200.683     559.638
  O      143.866     199.912     558.987
  C      146.296     200.167     559.435
  N      145.700     195.284     560.768
  C      145.016     196.015     559.817
  N      144.029     195.374     559.141
  N      145.269     197.276     559.555
  C      146.229     197.810     560.353
  C      146.953     197.188     561.347
  C      146.692     195.784     561.591
  O      147.257     195.084     562.428
  N      147.827     198.062     561.953
  C      147.624     199.211     561.332
  N      146.671     199.106     560.344
  O      147.795     202.658     563.456
  O      145.690     204.080     563.838
  H      143.853     199.033     559.410
  H      148.180     203.539     563.284
  H      145.475     194.310     560.911
  H      148.139     200.132     561.554
  H      146.421     199.781     558.409
  H      144.595     200.750     560.706
  H      143.693     194.471     559.425
  H      144.232     202.756     559.518
  H      143.340     195.965     558.665
  H      146.900     203.140     558.768
  H      147.397     203.484     561.176
  H      145.789     204.122     560.833
  P      144.184     203.343     556.962
  C      141.717     204.181     556.613
  O      142.634     203.387     557.358
  O      144.184     202.961     555.410
  O      144.929     204.615     557.232
  H      144.880     203.440     554.944
  H      140.737     204.079     557.029
  H      141.708     203.854     555.594
  H      142.017     205.207     556.655

 6  7  8  9  10  11  12  13  14  15  26  29  33  34 0
 6-311+G(2d,p)
 ****
 36  38  39  40  41 0
 6-311+G(2d,p)
 ****
 1  2  3  4  5  16  17  18  19  20  21  22  23  24  25 0
 3-21G
 ****
 27  28  30  31  32  35  37  42  43  44  45  46  47 0
 3-21G
 ****
 48  49 0
 3-21G
 ****


