%nproc=1
%NoSave
%Mem=1900MB
#P OB98/GEN NMR

erre ene a

0 1
  C      420.308     196.229     306.098
  O      419.938     194.889     306.355
  H      419.420     196.832     305.890
  H      420.809     196.634     306.982
  H      420.996     196.275     305.249
  P      419.152     194.120     305.185
  C      416.558     194.226     305.010
  O      417.786     194.940     304.988
  C      415.753     194.568     303.759
  O      415.179     195.889     303.884
  C      416.586     194.598     302.484
  O      416.786     193.304     301.935
  C      415.699     195.446     301.586
  O      414.598     194.656     301.102
  C      415.197     196.513     302.570
  N      415.362     201.570     301.789
  C      414.350     200.678     301.706
  N      414.384     199.351     301.950
  C      415.614     198.969     302.326
  C      416.741     199.765     302.462
  C      416.582     201.129     302.170
  N      417.616     202.036     302.219
  N      417.828     199.006     302.846
  C      417.361     197.779     302.958
  N      416.038     197.698     302.624
  O      418.658     192.766     305.884
  O      419.920     193.883     303.928
  H      414.981     193.854     300.695
  H      418.366     192.123     305.209
  H      413.390     201.080     301.399
  H      417.942     196.917     303.265
  H      414.178     196.848     302.343
  H      416.229     195.830     300.712
  H      417.540     195.116     302.638
  H      414.925     193.851     303.676
  H      415.991     194.517     305.901
  H      417.442     202.958     301.850
  H      418.555     201.695     302.360
  H      416.759     193.153     305.047
  P      417.951     193.135     300.843
  C      418.035     193.498     298.271
  O      417.425     193.856     299.507
  O      417.873     191.581     300.477
  O      419.306     193.542     301.312
  H      418.757     191.232     300.250
  H      417.585     194.055     297.476
  H      417.897     192.452     298.095
  H      419.081     193.718     298.313

 6  7  8  9  10  11  12  13  14  15  25  28  32  33  34  35 0
 6-311+G(2d,p)
 ****
 36  39  40 0
 6-311+G(2d,p)
 ****
 1  2  3  4  5  16  17  18  19  20  21  22  23  24 0
 3-21G
 ****
 26  27  29  30  31  37  38  41  42  43  44  45  46  47 0
 3-21G
 ****
 48 0
 3-21G
 ****


