%nproc=1
%NoSave
%Mem=1900MB
#P OB98/GEN NMR

erre ene a

0 1
  C      163.401      52.303      12.919
  O      162.484      52.905      13.810
  H      163.796      51.396      13.383
  H      164.232      52.983      12.720
  H      162.911      52.030      11.980
  P      161.606      54.143      13.295
  C      161.816      56.707      13.471
  O      162.497      55.460      13.500
  C      162.386      57.636      14.539
  O      162.020      57.168      15.854
  C      163.908      57.720      14.539
  O      164.370      58.528      13.473
  C      164.159      58.287      15.929
  O      163.948      59.707      15.947
  C      163.078      57.557      16.759
  N      163.596      56.399      17.488
  C      163.913      56.602      18.826
  O      163.812      57.695      19.382
  N      164.372      55.505      19.504
  C      164.617      54.275      18.964
  O      165.080      53.337      19.604
  C      164.296      54.128      17.538
  C      163.807      55.179      16.876
  O      160.222      54.232      13.846
  O      161.596      53.961      11.704
  H      164.194      60.013      16.842
  H      160.753      53.559      11.425
  H      164.620      55.635      20.472
  H      164.482      53.169      17.074
  H      163.569      55.092      15.822
  H      162.630      58.244      17.486
  H      165.179      58.116      16.275
  H      164.344      56.717      14.486
  H      161.942      58.630      14.400
  H      160.752      56.531      13.670
  H      161.924      57.147      12.476
  P      165.927      58.601      13.117
  C      167.819      60.300      13.413
  O      166.535      59.887      13.861
  O      166.252      58.513      11.662
  O      166.567      57.378      13.926
  H      166.795      56.655      13.309
  H      168.131      61.159      13.969
  H      167.772      60.546      12.373
  H      168.521      59.506      13.560

 6  7  8  9  10  11  12  13  14  15  16  26  31  32  33  34  35 0
 6-311+G(2d,p)
 ****
 36  37 0
 6-311+G(2d,p)
 ****
 1  2  3  4  5  17  18  19  20  21  22  23  24  25 0
 3-21G
 ****
 27  28  29  30  38  39  40  41  42  43  44  45 0
 3-21G
 ****


