%nproc=1
%NoSave
%Mem=1900MB
#P OB98/GEN NMR

erre ene a

0 1
  C     -208.392    -247.017    -225.564
  O     -209.110    -246.137    -226.417
  P     -208.401    -244.752    -226.827
  C     -209.108    -245.258    -229.274
  O     -208.056    -244.889    -228.387
  C     -208.584    -246.181    -230.372
  O     -208.074    -247.399    -229.797
  C     -209.631    -246.612    -231.386
  O     -209.847    -245.629    -232.389
  C     -208.962    -247.839    -231.985
  O     -207.967    -247.436    -232.946
  C     -208.287    -248.465    -230.760
  N     -208.685    -253.510    -230.020
  C     -207.817    -252.774    -230.746
  N     -207.783    -251.433    -230.901
  C     -208.802    -250.852    -230.241
  C     -209.787    -251.480    -229.493
  C     -209.701    -252.876    -229.382
  N     -210.569    -253.623    -228.624
  N     -210.664    -250.553    -228.972
  C     -210.211    -249.386    -229.390
  N     -209.084    -249.515    -230.150
  O     -206.967    -244.863    -226.123
  O     -209.134    -243.523    -226.416
  H     -208.419    -246.869    -233.600
  H     -206.592    -243.969    -225.983
  H     -207.043    -253.329    -231.257
  H     -210.662    -248.431    -229.157
  H     -207.304    -248.891    -230.993
  H     -209.665    -248.494    -232.508
  H     -210.566    -246.908    -230.894
  H     -207.751    -245.666    -230.870
  H     -209.525    -244.358    -229.732
  H     -210.332    -254.586    -228.444
  H     -211.193    -253.130    -227.992
  H     -209.898    -245.758    -228.702
  P     -211.278    -244.904    -232.394
  C     -210.406    -242.631    -231.481
  O     -211.192    -243.786    -231.248
  O     -212.254    -246.016    -231.777
  O     -211.721    -244.438    -233.739
  H     -213.167    -245.874    -232.087
  H     -210.700    -241.860    -230.762
  H     -210.563    -242.246    -232.490
  H     -209.349    -242.864    -231.334
  H     -208.980    -247.891    -225.377
  H     -208.181    -246.524    -224.638
  H     -207.473    -247.299    -226.035

 3  4  5  6  7  8  9  10  11  12  22  25  29  30  31  32 0
 6-311+G(2d,p)
 ****
 33  36  37 0
 6-311+G(2d,p)
 ****
 1  2  13  14  15  16  17  18  19  20  21  23  24  26 0
 3-21G
 ****
 27  28  34  35  38  39  40  41  42  43  44  45  46  47  48 0
 3-21G
 ****


