%nproc=1
%NoSave
%Mem=1900MB
#P OB98/GEN NMR

erre ene a

0 1
  C     -270.789     -94.937     111.294
  O     -272.109     -94.458     111.462
  H     -270.628     -95.158     110.235
  H     -270.633     -95.853     111.871
  H     -270.069     -94.173     111.604
  P     -272.661     -94.210     112.946
  C     -271.117     -92.214     113.475
  O     -272.453     -92.646     113.253
  C     -271.095     -90.833     114.138
  O     -272.177     -90.039     113.582
  C     -271.271     -90.881     115.661
  O     -270.445     -89.866     116.243
  C     -272.737     -90.539     115.837
  O     -273.001     -90.013     117.123
  C     -272.989     -89.570     114.678
  N     -274.411     -89.524     114.324
  C     -275.169     -88.510     114.921
  O     -274.635     -87.701     115.684
  N     -276.521     -88.469     114.691
  C     -277.081     -89.394     113.978
  N     -278.432     -89.317     113.822
  C     -276.327     -90.502     113.352
  C     -275.007     -90.503     113.564
  O     -272.138     -95.128     114.004
  O     -274.250     -94.340     112.786
  H     -273.947     -89.754     117.181
  H     -274.525     -95.265     112.939
  H     -276.842     -91.253     112.769
  H     -274.374     -91.283     113.150
  H     -272.658     -88.557     114.936
  H     -273.344     -91.447     115.713
  H     -271.023     -91.856     116.091
  H     -270.158     -90.328     113.866
  H     -278.910     -88.557     114.292
  H     -270.614     -92.162     112.504
  H     -278.981     -90.003     113.323
  H     -270.591     -92.939     114.105
  P     -269.144     -90.261     117.098
  C     -267.132     -90.669     115.566
  O     -267.835     -89.705     116.344
  O     -269.069     -91.699     117.495
  O     -269.241     -89.322     118.396
  H     -268.826     -89.776     119.157
  H     -266.283     -90.207     115.107
  H     -267.780     -91.057     114.808
  H     -266.805     -91.468     116.198

 6  7  8  9  10  11  12  13  14  15  16  26  30  31  32  33  35 0
 6-311+G(2d,p)
 ****
 37  38 0
 6-311+G(2d,p)
 ****
 1  2  3  4  5  17  18  19  20  21  22  23  24  25 0
 3-21G
 ****
 27  28  29  34  36  39  40  41  42  43  44  45  46 0
 3-21G
 ****


