%nproc=1
%NoSave
%Mem=1900MB
#P OB98/GEN NMR

erre ene a

0 1
  C     -211.127     -72.638    -110.237
  O     -211.126     -72.057    -111.524
  H     -210.194     -73.195    -110.103
  H     -211.968     -73.334    -110.135
  H     -211.187     -71.868    -109.463
  P     -212.326     -71.070    -111.931
  C     -214.754     -71.345    -112.748
  O     -213.614     -71.990    -112.192
  C     -215.953     -72.294    -112.715
  O     -216.442     -72.436    -111.362
  C     -217.145     -71.814    -113.538
  O     -216.915     -72.002    -114.920
  C     -218.259     -72.658    -112.942
  O     -218.237     -73.995    -113.479
  C     -217.868     -72.670    -111.445
  N     -218.609     -71.680    -110.660
  C     -219.998     -71.718    -110.777
  O     -220.592     -72.521    -111.497
  N     -220.681     -70.759    -110.073
  C     -220.119     -69.740    -109.354
  O     -220.761     -68.785    -108.925
  C     -218.658     -69.801    -109.200
  C     -217.981     -70.741    -109.865
  O     -212.020     -70.086    -113.009
  O     -212.687     -70.335    -110.549
  H     -212.288     -69.441    -110.546
  H     -217.358     -74.362    -113.260
  H     -221.685     -70.746    -110.191
  H     -218.177     -69.047    -108.586
  H     -216.897     -70.786    -109.789
  H     -218.053     -73.660    -111.009
  H     -219.250     -72.251    -113.148
  H     -217.350     -70.755    -113.324
  H     -215.615     -73.281    -113.060
  H     -214.533     -71.075    -113.788
  H     -214.966     -70.433    -112.182
  P     -218.095     -71.858    -115.995
  C     -220.269     -73.065    -116.617
  O     -219.171     -73.013    -115.712
  O     -217.649     -71.757    -117.417
  O     -218.867     -70.522    -115.541
  H     -218.936     -69.921    -116.308
  H     -220.922     -73.866    -116.340
  H     -219.905     -73.229    -117.610
  H     -220.805     -72.139    -116.582

 6  7  8  9  10  11  12  13  14  15  16  27  31  32  33  34  35 0
 6-311+G(2d,p)
 ****
 36  37 0
 6-311+G(2d,p)
 ****
 1  2  3  4  5  17  18  19  20  21  22  23  24  25 0
 3-21G
 ****
 26  28  29  30  38  39  40  41  42  43  44  45 0
 3-21G
 ****


