%nproc=1
%NoSave
%Mem=1900MB
#P OB98/GEN NMR

erre ene a

0 1
  C     1139.130     334.565     137.124
  O     1139.541     335.483     136.111
  P     1139.506     337.043     136.497
  C     1137.309     337.664     135.250
  O     1138.719     337.811     135.325
  C     1136.701     338.732     134.338
  O     1136.885     340.047     134.885
  C     1137.308     338.788     132.946
  O     1136.789     337.767     132.102
  C     1136.865     340.166     132.479
  O     1135.513     340.089     131.966
  C     1136.895     340.981     133.773
  N     1138.858     345.580     132.920
  C     1137.597     345.094     132.656
  N     1136.714     345.959     132.112
  N     1137.221     343.864     132.902
  C     1138.186     343.116     133.472
  C     1139.490     343.476     133.780
  C     1139.889     344.833     133.474
  O     1141.007     345.311     133.657
  N     1140.180     342.447     134.371
  C     1139.299     341.467     134.442
  N     1138.083     341.817     133.898
  O     1141.027     337.501     136.279
  O     1139.031     337.317     137.881
  H     1135.202     341.007     131.869
  H     1141.231     338.269     136.849
  H     1139.094     346.527     132.704
  H     1139.483     340.496     134.874
  H     1136.016     341.630     133.888
  H     1137.488     340.564     131.674
  H     1136.908     346.936     131.964
  H     1138.415     338.749     133.002
  H     1135.775     345.635     131.942
  H     1135.621     338.540     134.263
  H     1136.867     337.755     136.252
  H     1137.070     336.662     134.889
  P     1137.608     336.391     132.038
  C     1137.845     336.942     129.511
  O     1137.597     335.953     130.497
  O     1136.611     335.348     132.730
  O     1138.947     336.425     132.704
  H     1137.116     334.622     133.152
  H     1138.671     337.596     129.802
  H     1136.936     337.542     129.357
  H     1138.100     336.439     128.569
  H     1139.197     333.565     136.748
  H     1138.119     334.773     137.405
  H     1139.766     334.668     137.978

 3  4  5  6  7  8  9  10  11  12  23  26  30  31  33  0
 6-311+G(2d,p)
 ****
 35  36  37  38 0
 6-311+G(2d,p)
 ****
 1  2  13  14  15  16  17  18  19  20  21  22  24  25  27  28  29 0
 3-21G
 ****
 32  34  39  40  41  42  43  44  45  46  47  48  49 0
 3-21G
 ****


