%nproc=1
%NoSave
%Mem=1900MB
#P OB98/GEN NMR

erre ene a

0 1
  C      231.204    -275.786      28.377
  O      231.151    -276.639      27.239
  P      229.773    -277.394      26.921
  C      229.104    -275.523      25.256
  O      228.739    -276.283      26.399
  C      227.972    -275.500      24.227
  O      228.415    -274.763      23.054
  C      227.512    -276.882      23.749
  O      226.110    -276.795      23.476
  C      228.262    -277.058      22.442
  O      227.653    -278.029      21.595
  C      228.226    -275.627      21.911
  N      229.159    -274.184      17.096
  C      228.006    -274.301      17.791
  N      227.838    -274.692      19.072
  C      229.021    -274.980      19.640
  C      230.274    -274.941      19.043
  C      230.321    -274.516      17.706
  N      231.492    -274.386      16.997
  N      231.248    -275.333      19.938
  C      230.599    -275.604      21.052
  N      229.256    -275.382      20.924
  O      229.228    -277.756      28.384
  O      229.895    -278.612      26.071
  H      228.111    -278.012      20.732
  H      229.260    -278.723      28.523
  H      227.102    -274.041      17.248
  H      231.047    -275.963      21.966
  H      227.258    -275.378      21.457
  H      229.291    -277.383      22.643
  H      227.712    -277.691      24.460
  H      227.128    -274.942      24.655
  H      229.981    -275.987      24.795
  H      231.458    -273.948      16.091
  H      232.373    -274.446      17.495
  H      229.361    -274.507      25.559
  P      225.210    -278.060      23.881
  C      224.795    -276.843      26.134
  O      225.104    -278.057      25.477
  O      226.161    -279.307      23.560
  O      223.916    -278.146      23.142
  H      225.621    -280.092      23.347
  H      224.207    -277.064      27.028
  H      224.224    -276.163      25.491
  H      225.726    -276.349      26.434
  H      232.181    -275.358      28.456
  H      230.991    -276.354      29.259
  H      230.480    -275.005      28.272

 3  4  5  6  7  8  9  10  11  12  22  25  29  30  31  32 0
 6-311+G(2d,p)
 ****
 33  36  37 0
 6-311+G(2d,p)
 ****
 1  2  13  14  15  16  17  18  19  20  21  23  24  26 0
 3-21G
 ****
 27  28  34  35  38  39  40  41  42  43  44  45  46  47  48 0
 3-21G
 ****


