%nproc=1
%NoSave
%Mem=1900MB
#P OB98/GEN NMR

erre ene a

0 1
  C     -108.805     -88.880     -10.569
  O     -107.400     -88.827     -10.301
  P     -106.407     -88.535     -11.527
  C     -105.399     -89.886     -13.514
  O     -106.191     -89.907     -12.335
  C     -104.672     -91.228     -13.692
  O     -103.526     -91.333     -12.814
  C     -105.548     -92.440     -13.384
  O     -106.357     -92.800     -14.498
  C     -104.487     -93.509     -13.155
  O     -104.005     -94.006     -14.418
  C     -103.384     -92.725     -12.426
  N     -101.219     -94.711      -8.300
  C     -100.849     -94.796      -9.631
  N      -99.729     -95.509      -9.898
  N     -101.511     -94.233     -10.609
  C     -102.600     -93.542     -10.189
  C     -103.070     -93.384      -8.902
  C     -102.333     -94.023      -7.831
  O     -102.621     -93.996      -6.634
  N     -104.206     -92.613      -8.874
  C     -104.413     -92.287     -10.137
  N     -103.473     -92.840     -10.978
  O     -104.992     -88.328     -10.802
  O     -106.785     -87.346     -12.352
  H     -104.748     -94.492     -14.828
  H     -104.427     -87.742     -11.336
  H     -100.675     -95.169      -7.589
  H     -105.222     -91.656     -10.489
  H     -102.377     -93.052     -12.715
  H     -104.882     -94.373     -12.605
  H      -99.144     -95.927      -9.195
  H     -106.138     -92.283     -12.470
  H      -99.423     -95.552     -10.867
  H     -104.321     -91.291     -14.729
  H     -104.668     -89.074     -13.469
  H     -106.042     -89.663     -14.372
  P     -107.814     -92.129     -14.602
  C     -109.859     -91.969     -13.005
  O     -108.494     -92.324     -13.167
  O     -108.607     -93.155     -15.549
  O     -107.830     -90.741     -15.156
  H     -109.274     -92.672     -16.077
  H     -110.194     -92.314     -12.023
  H     -110.478     -92.435     -13.775
  H     -109.971     -90.878     -13.051
  H     -109.334     -89.081      -9.661
  H     -109.004     -89.657     -11.277
  H     -109.127     -87.941     -10.969

 3  4  5  6  7  8  9  10  11  12  23  26  30  31 0
 6-311+G(2d,p)
 ****
 33  35  36  37  38 0
 6-311+G(2d,p)
 ****
 1  2  13  14  15  16  17  18  19  20  21  22  24  25 0
 3-21G
 ****
 27  28  29  32  34  39  40  41  42  43  44  45  46  47  48  49 0
 3-21G
 ****


