%nproc=1
%NoSave
%Mem=1900MB
#P OB98/GEN NMR

erre ene a

0 1
  C       24.467      50.446      30.538
  O       23.854      51.625      31.033
  P       22.355      51.511      31.600
  C       23.242      52.344      33.904
  O       22.477      51.384      33.196
  C       22.492      52.815      35.151
  O       23.339      53.742      35.879
  C       21.168      53.535      34.872
  O       20.291      53.237      35.965
  C       21.559      55.000      34.919
  O       20.449      55.858      35.165
  C       22.607      54.978      36.026
  N       27.151      56.786      37.314
  C       26.523      55.614      37.698
  N       27.236      54.784      38.488
  N       25.310      55.287      37.337
  C       24.729      56.208      36.533
  C       25.230      57.419      36.117
  C       26.585      57.752      36.492
  O       27.211      58.735      36.105
  N       24.311      58.119      35.383
  C       23.284      57.297      35.288
  N       23.508      56.109      35.929
  O       21.910      50.048      31.137
  O       21.407      52.573      31.143
  H       19.839      55.785      34.403
  H       21.430      50.079      30.286
  H       28.093      56.975      37.609
  H       22.363      57.504      34.767
  H       22.160      54.994      37.028
  H       22.004      55.294      33.960
  H       28.185      54.959      38.779
  H       20.706      53.250      33.923
  H       26.812      53.905      38.758
  H       22.325      51.947      35.802
  H       23.414      53.208      33.255
  H       24.213      51.915      34.173
  P       18.718      53.164      35.666
  C       18.822      50.588      35.914
  O       18.393      51.689      35.138
  O       18.564      54.067      34.350
  O       17.845      53.676      36.765
  H       17.694      54.507      34.354
  H       18.208      49.720      35.661
  H       18.725      50.788      36.985
  H       19.865      50.363      35.681
  H       25.455      50.674      30.197
  H       23.890      50.058      29.725
  H       24.519      49.716      31.319

 3  4  5  6  7  8  9  10  11  12  23  26  30  31 0
 6-311+G(2d,p)
 ****
 33  35  36  37  38 0
 6-311+G(2d,p)
 ****
 1  2  13  14  15  16  17  18  19  20  21  22  24  25 0
 3-21G
 ****
 27  28  29  32  34  39  40  41  42  43  44  45  46  47  48  49 0
 3-21G
 ****


