%nproc=1
%NoSave
%Mem=1900MB
#P OB98/GEN NMR

erre ene a

0 1
  C     -518.874     191.277     -72.546
  O     -519.977     191.969     -72.002
  P     -519.898     193.536     -71.662
  C     -519.061     194.925     -69.657
  O     -519.002     193.670     -70.326
  C     -517.937     195.027     -68.618
  O     -516.654     195.148     -69.321
  C     -518.081     196.253     -67.687
  O     -518.025     195.947     -66.284
  C     -516.992     197.192     -68.189
  O     -516.590     198.162     -67.249
  C     -515.916     196.200     -68.658
  N     -514.917     196.813     -69.527
  C     -513.942     197.597     -68.923
  O     -513.864     197.795     -67.705
  N     -513.061     198.230     -69.762
  C     -513.134     198.241     -71.127
  O     -512.380     198.912     -71.817
  C     -514.212     197.430     -71.714
  C     -515.032     196.744     -70.909
  O     -521.208     194.250     -71.593
  O     -518.902     194.095     -72.791
  H     -516.078     197.715     -66.548
  H     -518.013     193.696     -72.788
  H     -512.352     198.805     -69.335
  H     -514.298     197.430     -72.788
  H     -515.834     196.139     -71.307
  H     -515.400     195.740     -67.808
  H     -517.387     197.727     -69.063
  H     -519.063     196.732     -67.818
  H     -517.933     194.094     -68.041
  H     -520.020     195.014     -69.146
  H     -518.993     195.744     -70.388
  P     -518.789     196.767     -65.138
  C     -517.962     198.574     -63.453
  O     -517.895     198.048     -64.763
  O     -519.251     195.948     -63.981
  O     -520.041     197.412     -65.905
  H     -520.779     197.527     -65.280
  H     -517.750     199.646     -63.493
  H     -517.207     198.087     -62.831
  H     -518.955     198.432     -63.011
  H     -519.136     190.250     -72.696
  H     -518.046     191.339     -71.871
  H     -518.604     191.717     -73.483

 3  4  5  6  7  8  9  10  11  12  13  23  28  29  30  31  32 0
 6-311+G(2d,p)
 ****
 33  34 0
 6-311+G(2d,p)
 ****
 1  2  14  15  16  17  18  19  20  21  22  24  25  26  27 0
 3-21G
 ****
 35  36  37  38  39  40  41  42  43  44  45 0
 3-21G
 ****


