%nproc=1
%NoSave
%Mem=1900MB
#P OB98/GEN NMR

erre ene a

0 1
  C      485.299     533.383     294.029
  O      484.921     534.529     293.285
  P      484.506     534.325     291.742
  C      486.877     535.073     290.938
  O      485.471     535.276     290.881
  C      487.609     536.162     290.166
  O      487.259     536.040     288.760
  C      487.273     537.597     290.589
  O      488.457     538.382     290.387
  C      486.219     538.012     289.583
  O      486.094     539.420     289.463
  C      486.719     537.308     288.332
  N      483.192     539.543     285.472
  C      484.034     540.084     286.420
  N      483.968     541.427     286.595
  N      484.873     539.385     287.143
  C      484.838     538.061     286.844
  C      484.031     537.402     285.957
  C      483.138     538.198     285.144
  O      482.435     537.764     284.229
  N      484.228     536.045     286.009
  C      485.215     535.897     286.863
  N      485.654     537.094     287.371
  O      483.080     535.052     291.658
  O      484.450     532.904     291.270
  H      485.899     539.780     290.354
  H      482.354     534.418     291.793
  H      482.587     540.138     284.930
  H      485.652     534.956     287.156
  H      487.512     537.868     287.822
  H      485.237     537.618     289.895
  H      483.361     542.035     286.053
  H      486.931     537.683     291.622
  H      484.593     541.852     287.259
  H      488.688     535.974     290.250
  H      487.109     534.095     290.505
  H      487.192     535.057     291.991
  P      489.391     538.667     291.665
  C      488.963     541.158     291.107
  O      489.886     540.191     291.573
  O      490.719     537.834     291.314
  O      488.815     538.231     292.968
  H      491.131     537.511     292.145
  H      489.280     542.146     291.464
  H      487.951     540.964     291.461
  H      488.970     541.171     290.009
  H      485.546     533.672     295.029
  H      486.150     532.925     293.570
  H      484.487     532.687     294.049

 3  4  5  6  7  8  9  10  11  12  23  26  30  31 0
 6-311+G(2d,p)
 ****
 33  35  36  37  38 0
 6-311+G(2d,p)
 ****
 1  2  13  14  15  16  17  18  19  20  21  22  24  25 0
 3-21G
 ****
 27  28  29  32  34  39  40  41  42  43  44  45  46  47  48  49 0
 3-21G
 ****


