%nproc=1
%NoSave
%Mem=1900MB
#P OB98/GEN NMR

erre ene a

0 1
  C      279.982      92.705     -11.795
  O      279.762      94.043     -12.257
  P      280.082      95.239     -11.234
  C      279.497      95.779      -8.753
  O      279.167      95.050      -9.930
  C      278.367      96.750      -8.401
  O      278.414      97.929      -9.226
  C      276.983      96.163      -8.620
  O      276.635      95.288      -7.564
  C      276.113      97.417      -8.695
  O      275.627      97.800      -7.398
  C      277.086      98.482      -9.256
  N      276.727      98.924     -10.589
  C      275.791      99.962     -10.659
  O      275.310     100.438      -9.626
  N      275.414     100.425     -11.893
  C      275.904      99.878     -12.965
  N      275.482     100.377     -14.159
  C      276.872      98.761     -12.936
  C      277.233      98.339     -11.727
  O      279.444      96.515     -11.954
  O      281.541      95.430     -10.962
  H      275.101      98.617      -7.541
  H      279.965      97.316     -11.749
  H      277.243      98.334     -13.856
  H      277.939      97.521     -11.611
  H      277.104      99.364      -8.600
  H      275.236      97.259      -9.327
  H      276.947      95.634      -9.584
  H      278.483      97.053      -7.351
  H      274.818     101.139     -14.142
  H      280.427      96.327      -8.894
  H      275.796     100.021     -15.055
  H      279.674      95.067      -7.935
  P      276.896      93.721      -7.775
  C      275.910      91.926      -9.329
  O      275.932      93.302      -8.986
  O      276.136      93.082      -6.518
  O      278.312      93.267      -7.868
  H      276.299      92.121      -6.477
  H      275.072      91.746     -10.011
  H      275.771      91.312      -8.436
  H      276.839      91.655      -9.832
  H      279.730      92.014     -12.572
  H      279.369      92.518     -10.938
  H      281.011      92.584     -11.530

 3  4  5  6  7  8  9  10  11  12  13  21  23  27  28  29  30  32 0
 6-311+G(2d,p)
 ****
 34  35 0
 6-311+G(2d,p)
 ****
 1  2  14  15  16  17  18  19  20  22  24  25  26 0
 3-21G
 ****
 31  33  36  37  38  39  40  41  42  43  44  45  46 0
 3-21G
 ****


