%nproc=1
%NoSave
%Mem=1900MB
#P OB98/GEN NMR

erre ene a

0 1
  C      -19.354    -348.304    -278.050
  O      -18.850    -347.948    -279.323
  H      -19.848    -349.275    -278.132
  H      -20.084    -347.567    -277.707
  H      -18.540    -348.387    -277.327
  P      -18.111    -346.536    -279.483
  C      -18.883    -344.072    -279.514
  O      -19.224    -345.415    -279.198
  C      -19.710    -343.103    -278.672
  O      -21.102    -343.190    -279.028
  C      -19.635    -343.358    -277.167
  O      -18.455    -342.788    -276.622
  C      -20.894    -342.646    -276.701
  O      -20.668    -341.223    -276.687
  C      -21.890    -343.008    -277.818
  N      -26.197    -344.908    -275.919
  C      -25.694    -343.623    -275.859
  N      -26.426    -342.723    -275.168
  N      -24.568    -343.256    -276.415
  C      -23.906    -344.275    -277.010
  C      -24.294    -345.592    -277.120
  C      -25.575    -345.970    -276.558
  O      -26.067    -347.092    -276.612
  N      -23.320    -346.354    -277.714
  C      -22.367    -345.489    -278.008
  N      -22.672    -344.213    -277.593
  O      -17.356    -346.330    -280.761
  O      -17.160    -346.441    -278.201
  H      -21.545    -340.793    -276.654
  H      -16.272    -346.790    -278.395
  H      -27.066    -345.135    -275.466
  H      -21.445    -345.731    -278.522
  H      -22.604    -342.200    -278.010
  H      -21.197    -342.934    -275.693
  H      -27.218    -342.978    -274.597
  H      -19.721    -344.424    -276.935
  H      -26.044    -341.792    -275.065
  H      -19.380    -342.085    -278.912
  H      -19.085    -343.920    -280.579
  H      -17.816    -343.896    -279.333
  P      -17.944    -343.168    -275.146
  C      -18.497    -342.146    -272.833
  O      -18.956    -342.432    -274.144
  O      -16.501    -342.891    -274.892
  O      -18.358    -344.702    -274.968
  H      -17.687    -345.328    -275.337
  H      -19.273    -341.658    -272.282
  H      -17.641    -341.506    -272.886
  H      -18.230    -343.058    -272.342

 6  7  8  9  10  11  12  13  14  15  26  29  33  34 0
 6-311+G(2d,p)
 ****
 36  38  39  40  41 0
 6-311+G(2d,p)
 ****
 1  2  3  4  5  16  17  18  19  20  21  22  23  24  25 0
 3-21G
 ****
 27  28  30  31  32  35  37  42  43  44  45  46  47 0
 3-21G
 ****
 48  49 0
 3-21G
 ****


