%nproc=1
%NoSave
%Mem=1900MB
#P OB98/GEN NMR

erre ene a

0 1
  C      -60.641     141.283     210.201
  O      -59.375     140.654     210.255
  H      -61.271     140.743     209.490
  H      -60.535     142.318     209.863
  H      -61.116     141.259     211.185
  P      -58.270     141.329     211.203
  C      -56.996     143.049     209.729
  O      -57.037     141.730     210.257
  C      -55.556     143.554     209.727
  O      -55.477     144.811     209.017
  C      -54.994     143.833     211.114
  O      -54.597     142.650     211.783
  C      -53.822     144.740     210.770
  O      -52.658     143.981     210.404
  C      -54.364     145.544     209.567
  N      -54.733     146.906     209.938
  C      -53.688     147.826     209.981
  O      -52.519     147.529     209.728
  N      -54.024     149.096     210.364
  C      -55.268     149.516     210.738
  O      -55.487     150.654     211.144
  C      -56.338     148.506     210.660
  C      -56.025     147.262     210.280
  O      -57.714     140.091     212.051
  O      -58.773     142.431     212.076
  H      -58.095     140.104     212.948
  H      -51.973     144.633     210.161
  H      -53.278     149.773     210.410
  H      -57.338     148.809     210.943
  H      -56.793     146.497     210.233
  H      -53.604     145.607     208.776
  H      -53.534     145.366     211.619
  H      -55.718     144.404     211.712
  H      -54.930     142.820     209.198
  H      -57.606     143.712     210.354
  H      -57.409     143.043     208.714
  P      -54.851     142.542     213.363
  C      -52.363     143.138     213.972
  O      -53.433     142.209     214.037
  O      -55.657     141.162     213.451
  O      -55.558     143.720     213.941
  H      -55.352     140.502     212.803
  H      -51.510     142.735     214.476
  H      -52.656     144.053     214.443
  H      -52.116     143.327     212.948

 6  7  8  9  10  11  12  13  14  15  16  27  31  32  33  34  35 0
 6-311+G(2d,p)
 ****
 36  37 0
 6-311+G(2d,p)
 ****
 1  2  3  4  5  17  18  19  20  21  22  23  24  25 0
 3-21G
 ****
 26  28  29  30  38  39  40  41  42  43  44  45 0
 3-21G
 ****


