%nproc=1
%NoSave
%Mem=1900MB
#P OB98/GEN NMR

erre ene a

0 1
  C        5.869     133.179    -282.096
  O        4.731     132.429    -281.720
  P        4.762     130.851    -281.476
  C        2.735     130.954    -279.856
  O        3.291     130.380    -281.034
  C        1.407     130.305    -279.442
  O        0.383     130.651    -280.395
  C        1.533     128.778    -279.476
  O        2.087     128.082    -278.377
  C        0.167     128.279    -279.931
  O       -0.652     127.855    -278.839
  C       -0.449     129.501    -280.616
  N       -2.223     126.520    -284.315
  C       -2.478     126.467    -282.960
  N       -3.133     125.370    -282.523
  N       -2.101     127.395    -282.115
  C       -1.371     128.379    -282.688
  C       -1.068     128.549    -284.019
  C       -1.524     127.540    -284.947
  O       -1.248     127.503    -286.143
  N       -0.246     129.627    -284.224
  C       -0.018     130.093    -283.011
  N       -0.648     129.345    -282.044
  O        5.940     130.306    -280.734
  O        4.853     130.299    -282.992
  H       -1.527     127.620    -279.197
  H        5.395     129.488    -282.977
  H       -2.469     125.736    -284.907
  H        0.617     130.937    -282.781
  H       -1.428     129.736    -280.182
  H        0.271     127.412    -280.592
  H       -3.309     124.574    -283.120
  H        2.208     128.537    -280.309
  H       -3.187     125.217    -281.523
  H        1.061     130.695    -278.478
  H        2.600     132.022    -280.043
  H        3.450     130.860    -279.033
  P        3.440     127.228    -278.374
  C        4.145     127.997    -276.040
  O        3.819     126.889    -276.859
  O        4.569     128.281    -278.798
  O        3.446     126.058    -279.305
  H        5.344     127.806    -279.161
  H        4.668     127.642    -275.149
  H        3.227     128.505    -275.731
  H        4.787     128.703    -276.575
  H        5.599     134.209    -282.199
  H        6.245     132.814    -283.029
  H        6.625     133.082    -281.345

 3  4  5  6  7  8  9  10  11  12  23  26  30  31 0
 6-311+G(2d,p)
 ****
 33  35  36  37  38 0
 6-311+G(2d,p)
 ****
 1  2  13  14  15  16  17  18  19  20  21  22  24  25 0
 3-21G
 ****
 27  28  29  32  34  39  40  41  42  43  44  45  46  47  48  49 0
 3-21G
 ****


