%nproc=1
%NoSave
%Mem=1900MB
#P OB98/GEN NMR

erre ene a

0 1
  C     -169.432    -908.751     681.629
  O     -169.536    -907.372     681.866
  P     -169.401    -906.715     683.313
  C     -171.947    -906.994     683.749
  O     -170.842    -906.104     683.742
  C     -173.295    -906.299     684.016
  O     -173.315    -905.793     685.376
  C     -173.420    -905.068     683.103
  O     -173.879    -905.205     681.780
  C     -174.175    -904.048     683.939
  O     -175.580    -904.006     683.643
  C     -173.946    -904.519     685.376
  N     -172.874    -902.854     690.052
  C     -173.544    -903.979     689.673
  N     -174.162    -904.658     690.687
  N     -173.617    -904.424     688.439
  C     -173.034    -903.580     687.529
  C     -172.303    -902.434     687.805
  C     -172.205    -901.980     689.175
  O     -171.679    -900.939     689.543
  N     -171.919    -901.788     686.641
  C     -172.420    -902.546     685.694
  N     -173.129    -903.613     686.177
  O     -168.169    -905.886     683.569
  O     -169.299    -908.023     684.250
  H     -176.004    -903.438     684.308
  H     -168.702    -907.817     684.995
  H     -172.917    -902.526     691.014
  H     -172.335    -902.341     684.642
  H     -174.904    -904.627     685.893
  H     -173.800    -903.018     683.737
  H     -174.254    -904.287     691.602
  H     -172.411    -904.651     682.989
  H     -174.818    -905.389     690.406
  H     -174.130    -906.996     683.941
  H     -171.756    -907.754     684.510
  H     -172.001    -907.534     682.787
  P     -173.010    -905.610     680.495
  C     -172.656    -903.262     679.531
  O     -173.274    -904.511     679.348
  O     -173.731    -906.899     679.909
  O     -171.569    -905.883     680.785
  H     -173.085    -907.414     679.361
  H     -173.117    -902.516     678.896
  H     -171.593    -903.320     679.268
  H     -172.735    -902.944     680.576
  H     -169.557    -908.944     680.584
  H     -170.191    -909.266     682.180
  H     -168.468    -909.095     681.942

 3  4  5  6  7  8  9  10  11  12  23  26  30  31 0
 6-311+G(2d,p)
 ****
 33  35  36  37  38 0
 6-311+G(2d,p)
 ****
 1  2  13  14  15  16  17  18  19  20  21  22  24  25 0
 3-21G
 ****
 27  28  29  32  34  39  40  41  42  43  44  45  46  47  48  49 0
 3-21G
 ****


