%nproc=1
%NoSave
%Mem=1900MB
#P OB98/GEN NMR

erre ene a

0 1
  C      -92.995    -950.540    -238.687
  O      -93.606    -951.815    -238.785
  P      -94.911    -952.073    -237.880
  C      -96.276    -953.030    -239.885
  O      -96.161    -952.037    -238.885
  C      -97.358    -952.634    -240.896
  O      -97.001    -951.394    -241.551
  C      -97.592    -953.649    -242.005
  O      -98.437    -954.696    -241.557
  C      -98.213    -952.780    -243.091
  O      -99.620    -952.570    -242.844
  C      -97.430    -951.467    -242.933
  N      -95.894    -950.163    -247.576
  C      -97.168    -950.307    -247.067
  N      -98.179    -950.020    -247.909
  N      -97.432    -950.693    -245.848
  C      -96.320    -950.963    -245.125
  C      -95.000    -950.877    -245.512
  C      -94.726    -950.393    -246.849
  O      -93.609    -950.152    -247.307
  N      -94.154    -951.250    -244.503
  C      -94.950    -951.534    -243.496
  N      -96.276    -951.356    -243.815
  O      -95.048    -950.715    -237.046
  O      -94.856    -953.285    -237.010
  H      -99.992    -952.026    -243.556
  H      -94.670    -950.827    -236.149
  H      -95.748    -949.838    -248.511
  H      -94.627    -951.852    -242.518
  H      -98.058    -950.589    -243.121
  H      -98.135    -953.238    -244.075
  H      -98.062    -949.734    -248.870
  H      -96.638    -954.051    -242.359
  H      -99.127    -950.113    -247.561
  H      -98.288    -952.453    -240.334
  H      -96.562    -953.984    -239.418
  H      -95.312    -953.162    -240.391
  P      -97.858    -956.190    -241.594
  C      -99.427    -957.262    -239.817
  O      -98.114    -956.837    -240.153
  O      -96.271    -955.971    -241.632
  O      -98.321    -957.007    -242.754
  H      -95.861    -956.653    -242.197
  H      -99.357    -958.088    -239.119
  H      -99.981    -957.581    -240.701
  H      -99.960    -956.431    -239.340
  H      -92.145    -950.501    -239.335
  H      -92.682    -950.371    -237.678
  H      -93.697    -949.785    -238.974

 3  4  5  6  7  8  9  10  11  12  23  26  30  31 0
 6-311+G(2d,p)
 ****
 33  35  36  37  38 0
 6-311+G(2d,p)
 ****
 1  2  13  14  15  16  17  18  19  20  21  22  24  25 0
 3-21G
 ****
 27  28  29  32  34  39  40  41  42  43  44  45  46  47  48  49 0
 3-21G
 ****


