%nproc=1
%NoSave
%Mem=1900MB
#P OB98/GEN NMR

erre ene a

0 1
  C      156.782       1.751      -4.353
  O      155.902       1.417      -3.300
  P      156.446       0.940      -1.869
  C      156.435      -1.576      -2.398
  O      155.844      -0.531      -1.642
  C      155.986      -2.950      -1.898
  O      156.647      -3.989      -2.671
  C      156.279      -3.218      -0.416
  O      155.209      -4.037       0.064
  C      157.570      -4.010      -0.476
  O      157.820      -4.745       0.715
  C      157.333      -4.852      -1.737
  N      158.577      -5.379      -2.285
  C      159.311      -6.236      -1.463
  O      158.944      -6.454      -0.307
  N      160.474      -6.784      -1.947
  C      160.915      -6.420      -3.110
  N      162.068      -6.998      -3.540
  C      160.235      -5.421      -3.957
  C      159.076      -4.957      -3.494
  O      156.209       1.896      -0.750
  O      157.994       0.641      -2.136
  H      158.736      -5.095       0.675
  H      158.507       1.487      -2.179
  H      160.670      -5.108      -4.894
  H      158.506      -4.224      -4.045
  H      156.665      -5.696      -1.519
  H      158.414      -3.328      -0.630
  H      156.370      -2.309       0.184
  H      154.909      -3.041      -2.088
  H      162.494      -7.690      -2.934
  H      157.521      -1.501      -2.288
  H      162.452      -6.849      -4.460
  H      156.198      -1.451      -3.460
  P      154.083      -3.450       1.041
  C      155.589      -3.003       3.060
  O      154.537      -3.791       2.537
  O      152.683      -3.846       0.703
  O      154.274      -1.860       0.956
  H      153.481      -1.419       1.313
  H      155.619      -3.126       4.146
  H      155.440      -1.944       2.827
  H      156.541      -3.335       2.638
  H      156.215       2.041      -5.213
  H      157.388       0.903      -4.594
  H      157.410       2.563      -4.049

 3  4  5  6  7  8  9  10  11  12  13  23  27  28  29  30  32 0
 6-311+G(2d,p)
 ****
 34  35 0
 6-311+G(2d,p)
 ****
 1  2  14  15  16  17  18  19  20  21  22  24  25  26 0
 3-21G
 ****
 31  33  36  37  38  39  40  41  42  43  44  45  46 0
 3-21G
 ****


