%nproc=1
%NoSave
%Mem=1900MB
#P OB98/GEN NMR

erre ene a

0 1
  C      -22.297     -16.315      22.492
  O      -21.348     -17.278      22.898
  H      -22.340     -16.303      21.400
  H      -22.005     -15.323      22.844
  H      -23.285     -16.573      22.881
  P      -21.086     -17.417      24.475
  C      -22.588     -18.009      26.510
  O      -22.526     -17.540      25.170
  C      -23.741     -17.327      27.237
  O      -23.525     -15.899      27.272
  C      -25.095     -17.516      26.569
  O      -25.655     -18.789      26.838
  C      -25.886     -16.380      27.196
  O      -26.415     -16.751      28.478
  C      -24.821     -15.271      27.335
  N      -24.975     -14.230      26.325
  C      -25.746     -13.134      26.700
  O      -26.273     -13.028      27.806
  N      -25.924     -12.173      25.743
  C      -25.450     -12.219      24.465
  O      -25.707     -11.358      23.633
  C      -24.630     -13.395      24.129
  C      -24.441     -14.337      25.057
  O      -20.585     -15.955      24.889
  O      -20.111     -18.478      24.862
  H      -19.617     -15.955      25.005
  H      -26.907     -15.973      28.806
  H      -26.488     -11.376      25.993
  H      -24.233     -13.460      23.124
  H      -23.857     -15.223      24.825
  H      -24.893     -14.796      28.322
  H      -26.735     -16.092      26.575
  H      -25.015     -17.338      25.490
  H      -23.766     -17.696      28.272
  H      -21.651     -17.771      27.024
  H      -22.719     -19.096      26.501
  P      -26.857     -19.308      25.913
  C      -26.927     -20.405      23.527
  O      -26.220     -19.629      24.477
  O      -27.678     -17.956      25.683
  O      -27.639     -20.425      26.515
  H      -27.106     -17.172      25.613
  H      -26.338     -20.506      22.639
  H      -27.851     -19.922      23.289
  H      -27.126     -21.374      23.935

 6  7  8  9  10  11  12  13  14  15  16  27  31  32  33  34  35 0
 6-311+G(2d,p)
 ****
 36  37 0
 6-311+G(2d,p)
 ****
 1  2  3  4  5  17  18  19  20  21  22  23  24  25 0
 3-21G
 ****
 26  28  29  30  38  39  40  41  42  43  44  45 0
 3-21G
 ****


