%nproc=1
%NoSave
%Mem=1900MB
#P OB98/GEN NMR

erre ene a

0 1
  C      641.798    -899.336     314.462
  O      640.959    -898.686     313.520
  P      639.867    -897.636     314.019
  C      638.613    -895.596     313.094
  O      639.530    -896.636     312.808
  C      638.597    -894.566     311.935
  O      639.836    -893.816     311.931
  C      638.481    -895.186     310.558
  O      637.146    -895.576     310.296
  C      638.998    -894.026     309.699
  O      637.954    -893.066     309.476
  C      640.103    -893.446     310.573
  N      643.583    -893.176     306.860
  C      642.293    -892.776     306.907
  N      641.420    -892.936     307.929
  C      641.987    -893.576     308.960
  C      643.285    -894.066     309.036
  C      644.105    -893.816     307.921
  N      645.457    -894.146     307.896
  N      643.491    -894.686     310.260
  C      642.358    -894.576     310.892
  N      641.434    -893.876     310.175
  O      640.155    -896.966     315.330
  O      638.520    -898.526     314.136
  H      637.283    -893.466     308.892
  H      638.196    -898.506     315.047
  H      641.918    -892.276     306.014
  H      642.132    -894.976     311.871
  H      640.080    -892.326     310.554
  H      639.332    -894.376     308.723
  H      639.174    -896.036     310.470
  H      637.787    -893.846     312.141
  H      638.890    -895.106     314.027
  H      645.999    -893.806     307.094
  H      645.925    -894.356     308.770
  H      637.606    -896.026     313.214
  P      636.847    -896.926     309.505
  C      634.794    -898.376     308.989
  O      635.256    -897.166     309.545
  O      637.654    -898.116     309.943
  O      637.121    -896.556     307.994
  H      637.458    -897.326     307.509
  H      634.801    -898.306     307.888
  H      633.768    -898.546     309.342
  H      635.424    -899.216     309.309
  H      642.463    -900.000     313.949
  H      641.197    -899.894     315.150
  H      642.367    -898.605     314.997

 3  4  5  6  7  8  9  10  11  12  22  25  29  30  31  32 0
 6-311+G(2d,p)
 ****
 33  36  37 0
 6-311+G(2d,p)
 ****
 1  2  13  14  15  16  17  18  19  20  21  23  24  26 0
 3-21G
 ****
 27  28  34  35  38  39  40  41  42  43  44  45  46  47  48 0
 3-21G
 ****


