%nproc=1
%NoSave
%Mem=1900MB
#P OB98/GEN NMR

erre ene a

0 1
  C     -489.620      75.011     263.443
  O     -490.315      75.266     264.660
  P     -490.282      74.133     265.792
  C     -489.481      75.662     267.738
  O     -490.501      74.828     267.233
  C     -489.965      76.468     268.956
  O     -490.916      77.490     268.543
  C     -490.651      75.614     270.028
  O     -490.422      76.213     271.301
  C     -492.122      75.752     269.676
  O     -492.962      75.403     270.778
  C     -492.154      77.228     269.260
  N     -496.495      79.808     269.066
  C     -495.584      79.684     270.095
  N     -495.848      80.371     271.230
  N     -494.509      78.948     270.025
  C     -494.353      78.349     268.814
  C     -495.185      78.385     267.720
  C     -496.389      79.191     267.820
  O     -497.241      79.328     266.953
  N     -494.701      77.615     266.681
  C     -493.580      77.114     267.161
  N     -493.300      77.542     268.426
  O     -488.742      73.704     265.829
  O     -491.165      72.962     265.507
  H     -493.892      75.383     270.441
  H     -488.627      72.823     265.437
  H     -497.317      80.386     269.180
  H     -492.931      76.418     266.633
  H     -492.197      77.911     270.133
  H     -492.376      75.108     268.826
  H     -496.630      81.004     271.332
  H     -490.321      74.566     270.057
  H     -495.168      80.338     271.976
  H     -489.101      76.991     269.398
  H     -489.142      76.356     266.961
  H     -488.609      75.044     267.996
  P     -489.423      75.450     272.305
  C     -488.113      77.649     272.811
  O     -488.867      76.559     273.312
  O     -488.154      75.123     271.376
  O     -489.980      74.219     272.943
  H     -487.666      74.347     271.733
  H     -488.745      78.533     272.785
  H     -487.731      77.448     271.795
  H     -487.268      77.830     273.463
  H     -489.729      75.849     262.787
  H     -490.026      74.138     262.976
  H     -488.582      74.854     263.651

 3  4  5  6  7  8  9  10  11  12  23  26  30  31 0
 6-311+G(2d,p)
 ****
 33  35  36  37  38 0
 6-311+G(2d,p)
 ****
 1  2  13  14  15  16  17  18  19  20  21  22  24  25 0
 3-21G
 ****
 27  28  29  32  34  39  40  41  42  43  44  45  46  47  48  49 0
 3-21G
 ****


