%nproc=1
%NoSave
%Mem=1900MB
#P OB98/GEN NMR

erre ene a

0 1
  C      205.911     210.076    -180.182
  O      204.894     209.499    -179.391
  P      204.781     207.929    -179.118
  C      203.947     207.487    -181.540
  O      203.706     207.318    -180.148
  C      203.075     206.574    -182.415
  O      203.423     205.196    -182.167
  C      201.601     206.724    -182.026
  O      200.829     207.782    -182.558
  C      201.002     205.336    -182.211
  O      200.316     205.197    -183.457
  C      202.218     204.414    -182.164
  N      200.995     199.849    -180.334
  C      201.070     200.267    -181.647
  N      200.571     199.412    -182.567
  N      201.564     201.420    -182.013
  C      201.930     202.204    -180.970
  C      201.918     201.892    -179.631
  C      201.410     200.597    -179.245
  O      201.249     200.223    -178.085
  N      202.297     202.958    -178.856
  C      202.501     203.930    -179.722
  N      202.252     203.529    -181.014
  O      204.728     207.494    -177.688
  O      206.175     207.398    -179.731
  H      199.423     205.572    -183.352
  H      206.466     206.642    -179.186
  H      200.533     198.977    -180.106
  H      202.791     204.942    -179.465
  H      202.257     203.777    -183.055
  H      200.261     205.128    -181.428
  H      200.054     198.581    -182.311
  H      201.576     206.899    -180.943
  H      200.453     199.755    -183.516
  H      203.271     206.743    -183.479
  H      205.008     207.289    -181.714
  H      203.765     208.530    -181.818
  P      199.799     208.705    -181.753
  C      197.859     207.144    -181.165
  O      198.316     208.168    -182.033
  O      199.821     210.103    -182.537
  O      200.133     208.913    -180.312
  H      199.516     210.815    -181.947
  H      196.993     206.654    -181.617
  H      197.559     207.583    -180.208
  H      198.642     206.401    -180.991
  H      205.777     211.137    -180.217
  H      205.861     209.677    -181.174
  H      206.866     209.851    -179.755

 3  4  5  6  7  8  9  10  11  12  23  26  30  31 0
 6-311+G(2d,p)
 ****
 33  35  36  37  38 0
 6-311+G(2d,p)
 ****
 1  2  13  14  15  16  17  18  19  20  21  22  24  25 0
 3-21G
 ****
 27  28  29  32  34  39  40  41  42  43  44  45  46  47  48  49 0
 3-21G
 ****


