%nproc=1
%NoSave
%Mem=1900MB
#P OB98/GEN NMR

erre ene a

0 1
  C        5.017    -768.304     355.345
  O        5.923    -767.275     355.676
  H        4.018    -768.015     355.685
  H        5.303    -769.228     355.850
  H        4.979    -768.464     354.261
  P        7.401    -767.305     355.050
  C        8.557    -768.481     357.036
  O        8.127    -768.588     355.685
  C        9.641    -769.520     357.334
  O        9.913    -769.502     358.766
  C        9.238    -770.960     356.950
  O       10.410    -771.661     356.510
  C        8.773    -771.506     358.285
  O        8.774    -772.910     358.307
  C        9.782    -770.859     359.236
  N        9.334    -770.923     360.619
  C       10.019    -771.797     361.463
  O       10.959    -772.503     361.097
  N        9.548    -771.897     362.740
  C        8.412    -771.307     363.217
  O        7.987    -771.497     364.352
  C        7.692    -770.439     362.271
  C        8.184    -770.286     361.037
  O        8.178    -766.035     355.146
  O        7.174    -767.768     353.533
  H        8.552    -773.228     359.202
  H        7.936    -767.507     352.979
  H       10.044    -772.515     363.367
  H        6.782    -769.967     362.613
  H        7.669    -769.664     360.306
  H       10.768    -771.340     359.152
  H        7.751    -771.168     358.502
  H        8.462    -770.997     356.176
  H       10.567    -769.221     356.824
  H        7.684    -768.653     357.686
  H        8.942    -767.470     357.221
  P       10.618    -772.070     354.970
  C        9.496    -774.377     354.855
  O        9.411    -773.012     354.465
  O       11.985    -772.607     354.661
  O       10.384    -770.704     354.159
  H       11.085    -770.598     353.499
  H        8.652    -774.911     354.471
  H        9.504    -774.443     355.923
  H       10.396    -774.804     354.465

 6  7  8  9  10  11  12  13  14  15  16  26  31  32  33  34  35 0
 6-311+G(2d,p)
 ****
 36  37 0
 6-311+G(2d,p)
 ****
 1  2  3  4  5  17  18  19  20  21  22  23  24  25 0
 3-21G
 ****
 27  28  29  30  38  39  40  41  42  43  44  45 0
 3-21G
 ****


