%nproc=1
%NoSave
%Mem=1900MB
#P OB98/GEN NMR

erre ene a

0 1
  C     -184.699     881.368     416.479
  O     -185.785     881.390     417.388
  P     -187.033     880.431     417.071
  C     -187.578     879.813     419.533
  O     -187.980     880.515     418.369
  C     -188.207     880.449     420.772
  O     -187.419     881.574     421.218
  C     -189.612     880.984     420.577
  O     -190.590     879.969     420.659
  C     -189.734     881.936     421.757
  O     -190.012     881.193     422.950
  C     -188.312     882.541     421.830
  N     -189.338     887.529     422.153
  C     -189.641     886.510     422.964
  N     -189.344     885.190     422.798
  C     -188.693     884.995     421.640
  C     -188.334     885.937     420.702
  C     -188.682     887.273     420.989
  N     -188.346     888.330     420.177
  N     -187.678     885.356     419.633
  C     -187.625     884.086     419.941
  N     -188.203     883.805     421.136
  O     -186.386     878.966     417.169
  O     -187.687     880.658     415.758
  H     -190.872     880.756     422.819
  H     -186.929     878.328     416.667
  H     -190.190     886.746     423.863
  H     -187.149     883.317     419.325
  H     -187.985     882.687     422.866
  H     -190.532     882.664     421.633
  H     -189.693     881.542     419.634
  H     -188.190     879.694     421.582
  H     -186.486     879.857     419.624
  H     -188.454     889.263     420.541
  H     -187.681     888.162     419.422
  H     -187.882     878.769     419.452
  P     -192.037     880.295     420.026
  C     -192.069     877.961     418.873
  O     -192.713     878.855     419.749
  O     -191.674     880.829     418.562
  O     -192.836     881.273     420.820
  H     -192.390     881.425     418.239
  H     -192.474     876.956     419.045
  H     -190.992     877.925     419.058
  H     -192.252     878.259     417.834
  H     -183.943     882.049     416.810
  H     -185.041     881.659     415.508
  H     -184.293     880.379     416.433

 3  4  5  6  7  8  9  10  11  12  22  25  29  30  31  32 0
 6-311+G(2d,p)
 ****
 33  36  37 0
 6-311+G(2d,p)
 ****
 1  2  13  14  15  16  17  18  19  20  21  23  24  26 0
 3-21G
 ****
 27  28  34  35  38  39  40  41  42  43  44  45  46  47  48 0
 3-21G
 ****


