%nproc=1
%NoSave
%Mem=1900MB
#P OB98/GEN NMR

erre ene a

0 1
  C     -326.441     335.013     810.127
  O     -327.154     336.059     810.833
  P     -326.255     337.097     811.669
  C     -326.150     339.135     810.047
  O     -326.699     338.580     811.236
  C     -327.099     340.178     809.461
  O     -328.219     339.568     808.783
  C     -327.726     341.097     810.523
  O     -326.773     342.056     810.979
  C     -328.899     341.681     809.735
  O     -328.452     342.740     808.877
  C     -329.352     340.478     808.894
  N     -333.541     337.746     807.802
  C     -332.604     338.312     807.013
  N     -331.514     339.034     807.378
  C     -331.444     339.120     808.721
  C     -332.324     338.584     809.660
  C     -333.414     337.867     809.148
  N     -334.386     337.294     809.957
  N     -331.901     338.889     810.943
  C     -330.812     339.615     810.786
  N     -330.488     339.771     809.461
  O     -324.797     336.933     811.015
  O     -326.234     336.838     813.142
  H     -328.007     343.413     809.443
  H     -324.204     336.477     811.634
  H     -332.754     338.181     805.948
  H     -330.232     340.038     811.600
  H     -329.626     340.775     807.875
  H     -329.683     342.098     810.388
  H     -328.084     340.495     811.366
  H     -326.537     340.785     808.724
  H     -325.977     338.350     809.316
  H     -335.179     336.868     809.517
  H     -334.339     337.462     810.953
  H     -325.168     339.571     810.274
  P     -326.495     342.112     812.566
  C     -325.257     344.332     812.214
  O     -326.337     343.692     812.861
  O     -325.005     341.580     812.656
  O     -327.508     341.396     813.411
  H     -324.426     341.991     811.987
  H     -325.275     345.401     812.474
  H     -325.327     344.230     811.130
  H     -324.300     343.905     812.573
  H     -327.141     334.390     809.611
  H     -325.887     334.424     810.827
  H     -325.768     335.454     809.421

 3  4  5  6  7  8  9  10  11  12  22  25  29  30  31  32 0
 6-311+G(2d,p)
 ****
 33  36  37 0
 6-311+G(2d,p)
 ****
 1  2  13  14  15  16  17  18  19  20  21  23  24  26 0
 3-21G
 ****
 27  28  34  35  38  39  40  41  42  43  44  45  46  47  48 0
 3-21G
 ****


