%nproc=1
%NoSave
%Mem=1900MB
#P OB98/GEN NMR

erre ene a

0 1
  C     -152.834    -752.037     675.492
  O     -153.518    -750.941     674.919
  H     -151.901    -751.708     675.950
  H     -153.463    -752.479     676.274
  H     -152.637    -752.799     674.736
  P     -152.743    -750.131     673.775
  C     -154.255    -751.122     671.902
  O     -152.928    -750.962     672.408
  C     -154.241    -752.039     670.674
  O     -153.895    -753.379     671.128
  C     -155.586    -752.116     669.929
  O     -155.411    -751.731     668.558
  C     -155.953    -753.595     669.972
  O     -156.514    -754.078     668.760
  C     -154.627    -754.294     670.299
  N     -156.997    -758.799     670.017
  C     -156.663    -757.904     669.056
  N     -155.929    -756.771     669.188
  C     -155.526    -756.607     670.456
  C     -155.780    -757.440     671.535
  C     -156.575    -758.573     671.284
  N     -156.993    -759.438     672.264
  N     -155.221    -756.934     672.695
  C     -154.661    -755.797     672.342
  N     -154.837    -755.543     670.982
  O     -151.200    -750.351     674.145
  O     -153.084    -748.679     673.678
  H     -157.386    -753.651     668.672
  H     -150.727    -749.499     674.114
  H     -157.004    -758.130     668.063
  H     -154.171    -755.095     672.991
  H     -154.043    -754.477     669.394
  H     -156.688    -753.761     670.779
  H     -156.372    -751.511     670.390
  H     -153.453    -751.705     669.999
  H     -154.657    -750.132     671.595
  H     -157.652    -760.173     672.021
  H     -156.766    -759.225     673.228
  H     -154.900    -751.515     672.691
  P     -155.724    -750.200     668.204
  C     -153.195    -749.495     668.173
  O     -154.499    -749.319     668.753
  O     -156.928    -749.816     669.195
  O     -156.093    -749.980     666.773
  H     -157.470    -749.099     668.824
  H     -152.500    -748.836     668.651
  H     -153.237    -749.272     667.127
  H     -152.878    -750.508     668.309

 6  7  8  9  10  11  12  13  14  15  25  28  32  33  34  35 0
 6-311+G(2d,p)
 ****
 36  39  40 0
 6-311+G(2d,p)
 ****
 1  2  3  4  5  16  17  18  19  20  21  22  23  24 0
 3-21G
 ****
 26  27  29  30  31  37  38  41  42  43  44  45  46  47  48 0
 3-21G
 ****


