%nproc=1
%NoSave
%Mem=1900MB
#P OB98/GEN NMR

erre ene a

0 1
  C     -802.268    -245.752     302.061
  O     -801.371    -245.177     301.132
  H     -801.830    -246.681     302.436
  H     -803.222    -245.983     301.575
  H     -802.435    -245.071     302.897
  P     -801.819    -243.781     300.468
  C     -799.602    -242.579     301.101
  O     -800.473    -243.018     300.066
  C     -798.243    -242.214     300.507
  O     -797.666    -243.363     299.842
  C     -798.300    -241.123     299.448
  O     -798.419    -239.829     300.004
  C     -796.982    -241.352     298.722
  O     -795.894    -240.718     299.400
  C     -796.827    -242.877     298.780
  N     -794.973    -244.848     294.448
  C     -794.357    -244.356     295.556
  N     -794.923    -243.867     296.675
  C     -796.263    -243.937     296.596
  C     -797.028    -244.399     295.537
  C     -796.326    -244.881     294.417
  N     -796.934    -245.353     293.275
  N     -798.376    -244.264     295.817
  C     -798.431    -243.727     297.014
  N     -797.186    -243.513     297.527
  O     -802.372    -242.945     301.712
  O     -802.838    -243.904     299.382
  H     -795.122    -240.775     298.796
  H     -803.345    -242.988     301.739
  H     -793.276    -244.378     295.538
  H     -799.346    -243.478     297.537
  H     -795.794    -243.183     299.015
  H     -797.019    -240.957     297.707
  H     -799.121    -241.324     298.747
  H     -797.570    -241.922     301.336
  H     -799.478    -243.379     301.834
  H     -800.055    -241.713     301.593
  H     -796.370    -245.612     292.496
  H     -797.946    -245.269     293.204
  P     -799.339    -238.775     299.230
  C     -800.474    -237.890     301.410
  O     -799.684    -237.591     300.262
  O     -800.732    -239.527     299.037
  O     -798.773    -238.295     297.929
  H     -801.129    -239.273     298.176
  H     -800.612    -237.001     301.990
  H     -799.976    -238.629     302.003
  H     -801.427    -238.264     301.099

 6  7  8  9  10  11  12  13  14  15  25  28  32  33  34  35 0
 6-311+G(2d,p)
 ****
 36  37  40 0
 6-311+G(2d,p)
 ****
 1  2  3  4  5  16  17  18  19  20  21  22  23  24 0
 3-21G
 ****
 26  27  29  30  31  38  39 41  42  43  44  45  46  47  48 0
 3-21G
 ****


