%nproc=1
%NoSave
%Mem=1900MB
#P OB98/GEN NMR

erre ene a

0 1
  C      -71.540    -232.724     259.841
  O      -72.879    -232.516     260.297
  P      -73.141    -232.764     261.862
  C      -74.929    -231.950     263.558
  O      -74.621    -232.246     262.205
  C      -76.280    -231.240     263.662
  O      -76.289    -229.972     262.980
  C      -77.433    -232.041     263.068
  O      -77.852    -233.041     263.980
  C      -78.480    -230.958     262.840
  O      -79.232    -230.697     264.043
  C      -77.623    -229.735     262.466
  N      -78.553    -226.269     258.885
  C      -78.889    -226.269     260.227
  N      -79.542    -225.179     260.681
  N      -78.606    -227.248     261.045
  C      -77.948    -228.273     260.450
  C      -77.537    -228.374     259.142
  C      -77.859    -227.285     258.244
  O      -77.563    -227.228     257.055
  N      -76.842    -229.538     258.925
  C      -76.944    -230.190     260.068
  N      -77.548    -229.437     261.046
  O      -72.184    -231.694     262.569
  O      -72.832    -234.154     262.304
  H      -79.776    -229.900     263.910
  H      -71.445    -232.152     263.011
  H      -78.803    -225.492     258.296
  H      -76.576    -231.188     260.249
  H      -77.995    -228.823     262.948
  H      -79.206    -231.249     262.078
  H      -79.790    -224.388     260.108
  H      -77.130    -232.479     262.107
  H      -79.791    -225.156     261.663
  H      -76.472    -231.052     264.729
  H      -74.148    -231.323     263.992
  H      -74.935    -232.884     264.129
  P      -77.493    -234.565     263.640
  C      -77.106    -236.727     265.024
  O      -77.584    -235.397     265.002
  O      -75.921    -234.504     263.330
  O      -78.247    -235.136     262.486
  H      -75.724    -235.037     262.534
  H      -76.751    -236.959     266.032
  H      -76.284    -236.872     264.315
  H      -77.924    -237.407     264.770
  H      -71.487    -232.530     258.790
  H      -71.251    -233.736     260.032
  H      -70.880    -232.061     260.360

 3  4  5  6  7  8  9  10  11  12  23  26  30  31 0
 6-311+G(2d,p)
 ****
 33  35  36  37  38 0
 6-311+G(2d,p)
 ****
 1  2  13  14  15  16  17  18  19  20  21  22  24  25 0
 3-21G
 ****
 27  28  29  32  34  39  40  41  42  43  44  45  46  47  48  49 0
 3-21G
 ****


