%nproc=1
%NoSave
%Mem=1900MB
#P OB98/GEN NMR

erre ene a

0 1
  C     -113.030     600.124      61.193
  O     -114.110     599.242      61.414
  H     -112.539     600.322      62.149
  H     -113.390     601.076      60.795
  H     -112.302     599.683      60.507
  P     -115.041     598.814      60.178
  C     -117.145     598.555      61.630
  O     -116.191     597.881      60.817
  C     -117.072     598.071      63.079
  O     -116.282     599.001      63.866
  C     -118.445     597.945      63.757
  O     -118.541     596.689      64.442
  C     -118.452     599.078      64.773
  O     -119.338     598.845      65.865
  C     -116.961     599.150      65.130
  N     -116.621     600.398      65.800
  C     -116.379     600.309      67.176
  O     -116.444     599.221      67.746
  N     -116.116     601.458      67.880
  C     -116.145     602.607      67.266
  N     -115.900     603.711      68.028
  C     -116.423     602.746      65.819
  C     -116.652     601.615      65.158
  O     -114.309     598.214      59.024
  O     -115.848     600.142      59.790
  H     -120.257     598.795      65.513
  H     -116.154     600.068      58.859
  H     -116.442     603.727      65.365
  H     -116.870     601.619      64.087
  H     -116.667     598.312      65.774
  H     -118.766     600.008      64.278
  H     -119.281     598.027      63.060
  H     -116.532     597.115      63.102
  H     -115.716     603.565      69.014
  H     -118.144     598.378      61.217
  H     -115.922     604.648      67.671
  H     -116.929     599.629      61.602
  P     -119.706     595.698      63.964
  C     -120.614     595.390      66.376
  O     -120.103     594.762      65.206
  O     -118.960     594.705      62.953
  O     -120.848     596.401      63.305
  H     -119.260     594.878      62.037
  H     -120.833     594.646      67.113
  H     -121.508     595.924      66.132
  H     -119.885     596.072      66.762

 6  7  8  9  10  11  12  13  14  15  16  26  30  31  32  33  35 0
 6-311+G(2d,p)
 ****
 37  38 0
 6-311+G(2d,p)
 ****
 1  2  3  4  5  17  18  19  20  21  22  23  24  25 0
 3-21G
 ****
 27  28  29  34  36  39  40  41  42  43  44  45  46 0
 3-21G
 ****


