%nproc=1
%NoSave
%Mem=1900MB
#P OB98/GEN NMR

erre ene a

0 1
  C     -418.639    -910.031    -173.649
  O     -417.701    -911.068    -173.872
  H     -418.507    -909.267    -174.421
  H     -418.464    -909.577    -172.671
  H     -419.665    -910.413    -173.707
  P     -417.771    -912.383    -172.963
  C     -418.435    -913.834    -174.994
  O     -417.509    -913.641    -173.934
  C     -417.928    -914.916    -175.935
  O     -416.751    -914.465    -176.645
  C     -417.520    -916.211    -175.237
  O     -418.665    -916.960    -174.848
  C     -416.665    -916.853    -176.320
  O     -417.479    -917.479    -177.322
  C     -415.925    -915.627    -176.909
  N     -414.572    -915.454    -176.347
  C     -413.537    -915.921    -177.136
  O     -413.689    -916.453    -178.238
  N     -412.269    -915.790    -176.604
  C     -411.983    -915.333    -175.348
  O     -410.885    -915.451    -174.819
  C     -413.128    -914.794    -174.591
  C     -414.351    -914.887    -175.117
  O     -418.975    -912.512    -172.089
  O     -416.420    -912.314    -172.099
  H     -416.623    -911.990    -171.205
  H     -418.039    -916.784    -177.709
  H     -411.511    -916.169    -177.147
  H     -412.932    -914.360    -173.605
  H     -415.207    -914.514    -174.557
  H     -415.848    -915.718    -177.998
  H     -416.002    -917.632    -175.916
  H     -416.897    -915.981    -174.366
  H     -418.718    -915.111    -176.692
  H     -418.539    -912.887    -175.545
  H     -419.411    -914.110    -174.566
  P     -418.866    -917.428    -173.346
  C     -420.792    -915.960    -172.496
  O     -420.423    -917.248    -172.965
  O     -417.919    -916.834    -172.354
  O     -418.697    -919.037    -173.395
  H     -418.022    -919.309    -172.734
  H     -421.838    -915.948    -172.273
  H     -420.580    -915.231    -173.250
  H     -420.236    -915.730    -171.611

 6  7  8  9  10  11  12  13  14  15  16  27  31  32  33  34  35 0
 6-311+G(2d,p)
 ****
 36  37 0
 6-311+G(2d,p)
 ****
 1  2  3  4  5  17  18  19  20  21  22  23  24  25 0
 3-21G
 ****
 26  28  29  30  38  39  40  41  42  43  44  45 0
 3-21G
 ****


