%nproc=1
%NoSave
%Mem=1900MB
#P OB98/GEN NMR

erre ene a

0 1
  C      214.918     225.970    -724.985
  O      214.836     227.352    -725.273
  H      214.491     225.793    -723.997
  H      215.961     225.646    -724.985
  H      214.349     225.401    -725.724
  P      215.513     227.840    -726.644
  C      215.483     230.321    -725.844
  O      216.261     229.201    -726.230
  C      216.355     231.336    -725.107
  O      216.714     230.840    -723.794
  C      217.680     231.648    -725.793
  O      217.553     232.527    -726.894
  C      218.429     232.285    -724.636
  O      217.931     233.617    -724.420
  C      218.035     231.347    -723.479
  N      218.980     230.238    -723.293
  C      220.235     230.560    -722.770
  O      220.514     231.722    -722.476
  N      221.161     229.559    -722.607
  C      220.863     228.338    -722.929
  N      221.821     227.392    -722.753
  C      219.544     227.953    -723.477
  C      218.667     228.938    -723.632
  O      214.273     228.368    -727.505
  O      216.371     226.836    -727.342
  H      218.149     234.135    -725.221
  H      214.598     228.832    -728.318
  H      219.346     226.924    -723.745
  H      217.679     228.729    -724.030
  H      217.960     231.899    -722.535
  H      219.499     232.372    -724.811
  H      218.206     230.726    -726.089
  H      215.759     232.244    -724.963
  H      222.732     227.697    -722.431
  H      214.678     229.971    -725.186
  H      221.734     226.448    -723.112
  H      215.043     230.794    -726.724
  P      218.324     232.136    -728.245
  C      217.627     234.307    -729.510
  O      218.684     233.510    -728.992
  O      217.171     231.512    -729.162
  O      219.474     231.188    -728.061
  H      217.521     230.792    -729.723
  H      218.034     235.181    -729.973
  H      216.975     234.597    -728.713
  H      217.077     233.743    -730.234

 6  7  8  9  10  11  12  13  14  15  16  26  30  31  32  33  35 0
 6-311+G(2d,p)
 ****
 37  38 0
 6-311+G(2d,p)
 ****
 1  2  3  4  5  17  18  19  20  21  22  23  24  25 0
 3-21G
 ****
 27  28  29  34  36  39  40  41  42  43  44  45  46 0
 3-21G
 ****


