%nproc=1
%NoSave
%Mem=1900MB
#P OB98/GEN NMR

erre ene a

0 1
  C     -162.958      94.859    -426.973
  O     -162.594      93.546    -426.599
  H     -163.812      95.171    -426.363
  H     -163.250      94.884    -428.028
  H     -162.128      95.548    -426.797
  P     -161.332      92.890    -427.360
  C     -162.721      91.832    -429.291
  O     -161.770      92.822    -428.909
  C     -162.177      90.998    -430.455
  O     -161.853      91.880    -431.559
  C     -160.909      90.208    -430.099
  O     -161.004      88.890    -430.651
  C     -159.791      90.991    -430.764
  O     -158.659      90.167    -431.068
  C     -160.502      91.609    -431.976
  N     -159.833      92.824    -432.437
  C     -158.528      92.683    -432.921
  O     -157.986      91.572    -432.932
  N     -157.842      93.802    -433.326
  C     -158.391      94.969    -433.209
  N     -157.655      96.044    -433.608
  C     -159.745      95.175    -432.657
  C     -160.409      94.070    -432.302
  O     -161.381      91.365    -426.879
  O     -160.022      93.565    -427.111
  H     -157.964      90.747    -431.455
  H     -160.540      90.891    -427.099
  H     -160.160      96.170    -432.560
  H     -161.411      94.124    -431.885
  H     -160.537      90.891    -432.810
  H     -159.452      91.786    -430.090
  H     -160.744      90.134    -429.027
  H     -162.975      90.328    -430.809
  H     -156.726      95.865    -433.971
  H     -163.647      92.325    -429.592
  H     -157.975      96.997    -433.533
  H     -162.917      91.174    -428.436
  P     -160.941      87.680    -429.593
  C     -158.372      87.420    -429.865
  O     -159.454      87.654    -428.972
  O     -160.993      86.374    -430.513
  O     -162.038      87.715    -428.576
  H     -161.900      86.009    -430.534
  H     -157.451      87.430    -429.320
  H     -158.353      88.187    -430.611
  H     -158.498      86.467    -430.336

 6  7  8  9  10  11  12  13  14  15  16  26  30  31  32  33  35 0
 6-311+G(2d,p)
 ****
 37  38 0
 6-311+G(2d,p)
 ****
 1  2  3  4  5  17  18  19  20  21  22  23  24  25 0
 3-21G
 ****
 27  28  29  34  36  39  40  41  42  43  44  45  46 0
 3-21G
 ****


