%nproc=1
%NoSave
%Mem=1900MB
#P OB98/GEN NMR

erre ene a

0 1
  C        9.358      -8.891     -71.485
  O       10.379      -9.270     -72.381
  P       10.721      -8.390     -73.674
  C        8.951      -9.848     -74.851
  O        9.470      -8.534     -74.676
  C        7.590      -9.792     -75.554
  O        6.699      -8.930     -74.779
  C        7.677      -9.220     -76.984
  O        7.079     -10.043     -77.987
  C        7.070      -7.834     -76.828
  O        6.601      -7.273     -78.039
  C        6.032      -8.072     -75.726
  N        5.565      -6.828     -75.119
  C        4.197      -6.575     -75.164
  O        3.368      -7.327     -75.668
  N        3.794      -5.370     -74.656
  C        4.611      -4.369     -74.226
  O        4.186      -3.276     -73.876
  C        6.049      -4.679     -74.238
  C        6.456      -5.881     -74.653
  O       12.045      -8.666     -74.303
  O       10.550      -6.887     -73.146
  H        6.454      -6.320     -77.890
  H        9.664      -6.670     -72.808
  H        2.805      -5.174     -74.683
  H        6.723      -3.900     -73.911
  H        7.510      -6.139     -74.673
  H        5.166      -8.618     -76.104
  H        7.855      -7.166     -76.450
  H        8.721      -9.126     -77.306
  H        7.175     -10.805     -75.559
  H        8.829     -10.312     -73.870
  H        9.665     -10.457     -75.416
  P        7.628     -10.216     -79.481
  C        6.157      -8.336     -80.514
  O        7.457      -8.818     -80.241
  O        7.104     -11.403     -80.216
  O        9.214     -10.329     -79.284
  H        9.593     -10.871     -80.002
  H        6.196      -7.714     -81.412
  H        5.819      -7.719     -79.676
  H        5.450      -9.153     -80.677
  H        9.292      -9.609     -70.695
  H        8.424      -8.847     -72.006
  H        9.583      -7.929     -71.074

 3  4  5  6  7  8  9  10  11  12  13  23  28  29  30  31  32 0
 6-311+G(2d,p)
 ****
 33  34 0
 6-311+G(2d,p)
 ****
 1  2  14  15  16  17  18  19  20  21  22  24  25  26  27 0
 3-21G
 ****
 35  36  37  38  39  40  41  42  43  44  45 0
 3-21G
 ****


