%nproc=1
%NoSave
%Mem=1900MB
#P OB98/GEN NMR

erre ene a

0 1
  C      363.030    -588.004    -293.051
  O      362.968    -586.614    -292.766
  H      362.008    -588.381    -293.154
  H      363.509    -588.534    -292.229
  H      363.571    -588.183    -293.983
  P      364.336    -585.790    -292.661
  C      364.512    -585.189    -295.157
  O      365.074    -585.930    -294.084
  C      365.003    -583.745    -295.120
  O      366.448    -583.733    -295.266
  C      364.415    -582.864    -296.230
  O      364.171    -581.560    -295.700
  C      365.528    -582.801    -297.260
  O      365.463    -581.618    -298.055
  C      366.775    -582.878    -296.373
  N      370.337    -581.711    -299.768
  C      369.365    -580.918    -299.177
  N      369.324    -579.625    -299.571
  N      368.517    -581.358    -298.285
  C      368.687    -582.660    -297.985
  C      369.603    -583.547    -298.491
  C      370.523    -583.063    -299.484
  O      371.397    -583.721    -300.044
  N      369.433    -584.806    -297.944
  C      368.424    -584.671    -297.112
  N      367.925    -583.395    -297.101
  O      365.196    -586.118    -291.485
  O      363.862    -584.260    -292.640
  H      366.076    -581.747    -298.818
  H      363.861    -583.910    -291.734
  H      370.958    -581.326    -300.449
  H      368.005    -585.453    -296.499
  H      367.059    -581.892    -295.984
  H      365.467    -583.668    -297.932
  H      369.958    -579.219    -300.235
  H      363.489    -583.269    -296.651
  H      368.635    -579.015    -299.137
  H      364.782    -583.321    -294.133
  H      363.418    -585.213    -295.058
  H      364.792    -585.658    -296.109
  P      362.704    -580.931    -295.831
  C      362.064    -581.088    -293.343
  O      361.790    -581.548    -294.662
  O      362.105    -580.965    -297.194
  O      362.922    -579.418    -295.341
  H      362.281    -578.837    -295.800
  H      361.398    -581.564    -292.654
  H      361.925    -580.028    -293.299
  H      363.075    -581.326    -293.085

 6  7  8  9  10  11  12  13  14  15  26  29  33  34 0
 6-311+G(2d,p)
 ****
 36  38  39  40  41 0
 6-311+G(2d,p)
 ****
 1  2  3  4  5  16  17  18  19  20  21  22  23  24  25 0
 3-21G
 ****
 27  28  30  31  32  35  37  42  43  44  45  46  47 0
 3-21G
 ****
 48  49 0
 3-21G
 ****


