%nproc=1
%NoSave
%Mem=1900MB
#P OB98/GEN NMR

erre ene a

0 1
  C     -320.514     -57.487    -365.424
  O     -321.240     -56.354    -365.909
  P     -321.759     -56.435    -367.428
  C     -320.802     -55.911    -369.785
  O     -320.534     -56.024    -368.388
  C     -319.497     -55.828    -370.595
  O     -318.842     -54.535    -370.402
  C     -318.471     -56.913    -370.241
  O     -317.779     -57.257    -371.447
  C     -317.516     -56.176    -369.313
  O     -316.265     -56.858    -369.197
  C     -317.471     -54.821    -370.011
  N     -313.344     -52.137    -368.867
  C     -313.490     -53.219    -369.699
  N     -312.387     -53.621    -370.385
  N     -314.625     -53.856    -369.876
  C     -315.650     -53.320    -369.169
  C     -315.634     -52.233    -368.310
  C     -314.365     -51.562    -368.107
  O     -314.176     -50.598    -367.376
  N     -316.882     -51.984    -367.794
  C     -317.636     -52.939    -368.284
  N     -316.948     -53.760    -369.168
  O     -322.763     -55.193    -367.540
  O     -322.426     -57.735    -367.759
  H     -315.640     -56.257    -368.742
  H     -323.687     -55.500    -367.462
  H     -312.448     -51.690    -368.765
  H     -318.678     -53.101    -368.068
  H     -316.856     -54.830    -370.910
  H     -317.949     -56.100    -368.311
  H     -311.505     -53.142    -370.336
  H     -318.904     -57.813    -369.781
  H     -312.477     -54.387    -371.039
  H     -319.758     -55.902    -371.663
  H     -321.396     -55.017    -369.969
  H     -321.413     -56.772    -370.095
  P     -317.702     -58.808    -371.860
  C     -316.210     -60.830    -371.262
  O     -316.572     -59.488    -370.976
  O     -317.059     -58.760    -373.334
  O     -319.032     -59.509    -371.889
  H     -317.488     -59.430    -373.897
  H     -315.168     -60.994    -370.943
  H     -316.287     -61.049    -372.331
  H     -316.852     -61.507    -370.706
  H     -320.223     -57.316    -364.408
  H     -319.641     -57.635    -366.025
  H     -321.135     -58.357    -365.476

 3  4  5  6  7  8  9  10  11  12  23  26  30  31 0
 6-311+G(2d,p)
 ****
 33  35  36  37  38 0
 6-311+G(2d,p)
 ****
 1  2  13  14  15  16  17  18  19  20  21  22  24  25 0
 3-21G
 ****
 27  28  29  32  34  39  40  41  42  43  44  45  46  47  48  49 0
 3-21G
 ****


