%nproc=1
%NoSave
%Mem=1900MB
#P OB98/GEN NMR

erre ene a

0 1
  C      407.270     251.704       2.979
  O      406.359     252.691       3.410
  H      406.709     250.898       2.493
  H      407.798     251.291       3.844
  H      407.991     252.108       2.265
  P      406.911     254.158       3.735
  C      406.486     255.079       1.361
  O      407.452     254.800       2.359
  C      406.200     256.580       1.248
  O      407.441     257.298       1.088
  C      405.321     256.926       0.045
  O      403.930     256.845       0.291
  C      405.741     258.365      -0.244
  O      404.964     259.307       0.517
  C      407.211     258.405       0.201
  N      410.277     261.005      -2.958
  C      409.361     261.494      -2.051
  N      409.218     262.834      -2.013
  N      408.640     260.727      -1.276
  C      408.821     259.401      -1.490
  C      409.697     258.797      -2.379
  C      410.536     259.657      -3.179
  O      411.381     259.276      -3.988
  N      409.570     257.435      -2.356
  C      408.572     257.217      -1.528
  N      408.136     258.372      -0.920
  O      408.269     253.881       4.541
  O      405.993     255.035       4.529
  H      405.115     259.120       1.470
  H      408.421     254.598       5.179
  H      410.827     261.635      -3.506
  H      408.150     256.244      -1.289
  H      407.438     259.316       0.771
  H      405.589     258.616      -1.299
  H      409.685     263.465      -2.644
  H      405.588     256.310      -0.816
  H      408.414     263.222      -1.504
  H      405.749     256.926       2.188
  H      405.573     254.546       1.645
  H      406.809     254.681       0.388
  P      403.034     255.720      -0.401
  C      403.238     253.802       1.386
  O      403.549     254.293       0.098
  O      403.517     255.764      -1.928
  O      401.551     255.890      -0.268
  H      402.889     256.286      -2.467
  H      403.678     252.835       1.515
  H      402.176     253.727       1.492
  H      403.624     254.472       2.126

 6  7  8  9  10  11  12  13  14  15  26  29  33  34 0
 6-311+G(2d,p)
 ****
 36  38  39  40  41 0
 6-311+G(2d,p)
 ****
 1  2  3  4  5  16  17  18  19  20  21  22  23  24  25 0
 3-21G
 ****
 27  28  30  31  32  35  37  42  43  44  45  46  47 0
 3-21G
 ****
 48  49 0
 3-21G
 ****


