%nproc=1
%NoSave
%Mem=1900MB
#P OB98/GEN NMR

erre ene a

0 1
  C       33.289    -173.047      49.932
  O       32.172    -172.228      50.291
  P       32.233    -171.543      51.745
  C       33.883    -169.680      51.014
  O       32.603    -169.990      51.543
  C       33.933    -168.244      50.470
  O       32.909    -168.036      49.446
  C       33.720    -167.167      51.544
  O       34.532    -166.046      51.175
  C       32.256    -166.803      51.368
  O       31.953    -165.535      51.957
  C       32.155    -166.863      49.839
  N       28.727    -164.612      46.889
  C       29.994    -164.202      47.244
  N       30.437    -163.053      46.692
  N       30.766    -164.869      48.065
  C       30.209    -166.025      48.515
  C       28.965    -166.541      48.224
  C       28.107    -165.776      47.336
  O       26.976    -166.094      46.988
  N       28.764    -167.759      48.841
  C       29.868    -167.930      49.556
  N       30.793    -166.938      49.345
  O       33.558    -172.173      52.385
  O       31.027    -171.809      52.588
  H       32.681    -164.920      51.713
  H       33.325    -172.889      53.005
  H       28.165    -164.048      46.265
  H       30.056    -168.762      50.216
  H       32.608    -165.985      49.357
  H       31.614    -167.564      51.831
  H       29.911    -162.517      46.011
  H       33.954    -167.490      52.564
  H       31.385    -162.751      46.903
  H       34.911    -168.093      49.988
  H       34.134    -170.376      50.203
  H       34.640    -169.834      51.791
  P       36.041    -165.997      51.726
  C       37.394    -166.632      49.608
  O       36.983    -165.599      50.486
  O       36.381    -167.545      51.975
  O       36.229    -165.195      52.974
  H       36.917    -167.633      52.790
  H       37.601    -166.196      48.623
  H       36.624    -167.402      49.489
  H       38.313    -167.093      49.984
  H       33.138    -173.446      48.951
  H       33.383    -173.850      50.633
  H       34.182    -172.457      49.944

 3  4  5  6  7  8  9  10  11  12  23  26  30  31 0
 6-311+G(2d,p)
 ****
 33  35  36  37  38 0
 6-311+G(2d,p)
 ****
 1  2  13  14  15  16  17  18  19  20  21  22  24  25 0
 3-21G
 ****
 27  28  29  32  34  39  40  41  42  43  44  45  46  47  48  49 0
 3-21G
 ****


