%nproc=1
%NoSave
%Mem=1900MB
#P OB98/GEN NMR

erre ene a

0 1
  C      -46.479    -897.710     380.022
  O      -45.311    -896.950     380.207
  H      -46.341    -898.370     379.160
  H      -47.338    -897.060     379.820
  H      -46.679    -898.320     380.910
  P      -45.328    -895.880     381.406
  C      -43.044    -896.700     382.260
  O      -44.426    -896.550     382.551
  C      -42.194    -896.350     383.494
  O      -42.501    -894.990     383.889
  C      -42.467    -897.260     384.691
  O      -41.244    -897.520     385.380
  C      -43.374    -896.430     385.571
  O      -43.295    -896.800     386.951
  C      -42.883    -895.010     385.283
  N      -46.178    -893.290     388.771
  C      -45.172    -894.200     388.846
  N      -44.336    -894.580     387.856
  C      -44.579    -893.900     386.733
  C      -45.563    -892.960     386.507
  C      -46.401    -892.650     387.596
  N      -47.440    -891.760     387.529
  N      -45.517    -892.500     385.190
  C      -44.513    -893.160     384.647
  N      -43.925    -894.020     385.528
  O      -46.685    -895.430     381.840
  O      -44.367    -894.730     380.836
  H      -44.082    -896.450     387.414
  H      -43.573    -895.110     380.422
  H      -45.032    -894.670     389.805
  H      -44.177    -893.060     383.614
  H      -42.013    -894.730     385.882
  H      -44.426    -896.550     385.256
  H      -42.933    -898.210     384.404
  H      -41.127    -896.370     383.205
  H      -42.756    -896.040     381.426
  H      -47.984    -891.590     388.371
  H      -47.605    -891.260     386.662
  H      -42.868    -897.740     381.962
  P      -40.669    -899.020     385.376
  C      -39.307    -898.810     383.188
  O      -40.390    -899.470     383.858
  O      -41.415    -900.000     386.209
  O      -39.183    -898.810     385.950
  H      -38.948    -899.560     386.531
  H      -39.219    -899.190     382.192
  H      -38.396    -898.989     383.720
  H      -39.498    -897.758     383.152

 6  7  8  9  10  11  12  13  14  15  25  28  32  33  34  35 0
 6-311+G(2d,p)
 ****
 36  39  40 0
 6-311+G(2d,p)
 ****
 1  2  3  4  5  16  17  18  19  20  21  22  23  24 0
 3-21G
 ****
 26  27  29  30  31  37  38  41  42  43  44  45  46  47 0
 3-21G
 ****
 48 0
 3-21G
 ****


