%nproc=1
%NoSave
%Mem=1900MB
#P OB98/GEN NMR

erre ene a

0 1
  C       76.515    -415.395    -379.229
  O       76.350    -416.807    -379.050
  P       77.633    -417.742    -379.284
  C       77.317    -417.811    -381.858
  O       78.182    -417.507    -380.778
  C       78.077    -418.455    -383.025
  O       79.033    -417.515    -383.608
  C       78.881    -419.696    -382.621
  O       78.944    -420.582    -383.749
  C       80.263    -419.130    -382.369
  O       81.266    -420.148    -382.399
  C       80.346    -418.094    -383.492
  N       85.239    -416.909    -383.906
  C       84.568    -418.071    -384.250
  N       85.308    -419.049    -384.820
  N       83.292    -418.258    -384.056
  C       82.669    -417.178    -383.508
  C       83.226    -415.981    -383.119
  C       84.644    -415.799    -383.325
  O       85.294    -414.795    -383.022
  N       82.275    -415.140    -382.581
  C       81.158    -415.841    -382.639
  N       81.337    -417.067    -383.226
  O       77.000    -419.213    -379.348
  O       78.660    -417.639    -378.200
  H       81.118    -420.730    -381.617
  H       77.225    -419.703    -378.533
  H       86.228    -416.831    -384.075
  H       80.194    -415.510    -382.268
  H       80.608    -418.547    -384.456
  H       80.296    -418.646    -381.385
  H       86.287    -418.951    -385.047
  H       78.480    -420.238    -381.759
  H       84.836    -419.891    -385.118
  H       77.356    -418.715    -383.816
  H       76.818    -416.897    -382.215
  H       76.509    -418.462    -381.501
  P       77.824    -421.725    -383.845
  C       79.467    -423.552    -382.991
  O       78.252    -422.855    -382.790
  O       78.102    -422.413    -385.262
  O       76.413    -421.234    -383.725
  H       77.297    -422.831    -385.604
  H       80.222    -423.163    -382.301
  H       79.838    -423.449    -384.020
  H       79.304    -424.615    -382.778
  H       75.585    -414.901    -379.042
  H       76.828    -415.197    -380.233
  H       77.255    -415.033    -378.546

 3  4  5  6  7  8  9  10  11  12  23  26  30  31 0
 6-311+G(2d,p)
 ****
 33  35  36  37  38 0
 6-311+G(2d,p)
 ****
 1  2  13  14  15  16  17  18  19  20  21  22  24  25 0
 3-21G
 ****
 27  28  29  32  34  39  40  41  42  43  44  45  46  47  48  49 0
 3-21G
 ****


