%nproc=1
%NoSave
%Mem=1900MB
#P OB98/GEN NMR

erre ene a

0 1
  C      136.496     -63.306    -106.859
  O      136.575     -62.502    -105.679
  P      135.679     -61.175    -105.627
  C      133.443     -61.275    -106.957
  O      134.139     -61.593    -105.757
  C      132.017     -61.827    -106.902
  O      132.014     -63.266    -106.874
  C      131.261     -61.403    -105.654
  O      130.801     -60.071    -105.778
  C      130.143     -62.437    -105.593
  O      128.978     -62.003    -106.315
  C      130.776     -63.675    -106.266
  N      130.980     -64.775    -105.340
  C      130.431     -66.006    -105.718
  O      129.798     -66.105    -106.771
  N      130.588     -67.081    -104.883
  C      131.218     -66.936    -103.756
  N      131.339     -68.035    -102.967
  C      131.788     -65.648    -103.308
  C      131.633     -64.619    -104.138
  O      135.989     -60.466    -107.028
  O      135.995     -60.275    -104.474
  H      128.336     -62.740    -106.248
  H      135.953     -59.497    -106.934
  H      132.297     -65.574    -102.358
  H      132.019     -63.637    -103.890
  H      130.135     -64.036    -107.081
  H      129.823     -62.621    -104.564
  H      131.906     -61.505    -104.772
  H      131.479     -61.490    -107.799
  H      130.933     -68.900    -103.305
  H      133.970     -61.692    -107.818
  H      131.802     -68.034    -102.069
  H      133.441     -60.188    -107.086
  P      131.821     -58.893    -105.407
  C      133.432     -57.438    -106.777
  O      132.637     -58.610    -106.758
  O      132.912     -59.661    -104.519
  O      131.265     -57.702    -104.702
  H      133.549     -59.025    -104.147
  H      134.086     -57.472    -107.654
  H      134.053     -57.378    -105.881
  H      132.791     -56.555    -106.851
  H      137.141     -64.153    -106.757
  H      136.799     -62.727    -107.706
  H      135.489     -63.639    -106.997

 3  4  5  6  7  8  9  10  11  12  13  21  23  27  28  29  30  32 0
 6-311+G(2d,p)
 ****
 34  35 0
 6-311+G(2d,p)
 ****
 1  2  14  15  16  17  18  19  20  22  24  25  26 0
 3-21G
 ****
 31  33  36  37  38  39  40  41  42  43  44  45  46 0
 3-21G
 ****


