%nproc=1
%NoSave
%Mem=1900MB
#P OB98/GEN NMR

erre ene a

0 1
  C      -66.322     208.327     163.748
  O      -65.005     208.112     164.221
  H      -66.393     209.346     163.354
  H      -67.050     208.219     164.557
  H      -66.556     207.623     162.945
  P      -64.691     206.740     164.990
  C      -65.712     205.599     167.076
  O      -65.522     206.813     166.357
  C      -65.880     205.892     168.564
  O      -64.697     206.533     169.083
  C      -67.033     206.841     168.864
  O      -68.275     206.172     168.763
  C      -66.656     207.319     170.251
  O      -67.016     206.357     171.252
  C      -65.119     207.440     170.131
  N      -64.679     208.803     169.852
  C      -64.356     209.585     170.966
  O      -64.443     209.118     172.101
  N      -63.965     210.885     170.761
  C      -63.885     211.358     169.557
  N      -63.491     212.654     169.424
  C      -64.203     210.565     168.354
  C      -64.593     209.309     168.572
  O      -63.248     206.379     165.164
  O      -65.487     205.641     164.140
  H      -67.991     206.288     171.216
  H      -64.921     205.283     163.431
  H      -64.119     210.998     167.370
  H      -64.845     208.656     167.744
  H      -64.631     207.104     171.053
  H      -67.152     208.257     170.499
  H      -66.999     207.701     168.188
  H      -66.004     204.938     169.094
  H      -63.292     213.165     170.278
  H      -64.824     204.981     166.910
  H      -63.309     213.100     168.538
  H      -66.587     205.058     166.697
  P      -69.604     206.979     168.366
  C      -71.110     208.714     169.539
  O      -69.947     207.895     169.640
  O      -70.730     206.140     167.857
  O      -69.074     208.046     167.294
  H      -68.877     207.617     166.422
  H      -71.232     209.273     170.443
  H      -71.969     208.096     169.383
  H      -71.001     209.388     168.715

 6  7  8  9  10  11  12  13  14  15  16  26  30  31  32  33  35 0
 6-311+G(2d,p)
 ****
 37  38 0
 6-311+G(2d,p)
 ****
 1  2  3  4  5  17  18  19  20  21  22  23  24  25 0
 3-21G
 ****
 27  28  29  34  36  39  40  41  42  43  44  45  46 0
 3-21G
 ****


