%nproc=1
%NoSave
%Mem=1900MB
#P OB98/GEN NMR

erre ene a

0 1
  C     -411.759      91.669     217.193
  O     -412.251      90.398     216.796
  H     -411.771      91.722     218.285
  H     -412.384      92.473     216.794
  H     -410.729      91.792     216.848
  P     -412.575      90.168     215.240
  C     -413.203      87.667     215.445
  O     -413.673      88.992     215.200
  C     -414.344      86.649     215.319
  O     -415.312      86.855     216.363
  C     -415.130      86.768     214.020
  O     -414.405      86.383     212.869
  C     -416.437      86.064     214.357
  O     -416.384      84.652     214.166
  C     -416.584      86.383     215.870
  N     -417.655      87.338     216.124
  C     -418.842      86.802     216.611
  O     -419.018      85.596     216.803
  N     -419.859      87.695     216.830
  C     -419.811      89.038     216.572
  O     -420.768      89.784     216.758
  C     -418.537      89.545     216.040
  C     -417.533      88.682     215.835
  O     -411.386      89.917     214.360
  O     -413.416      91.464     214.828
  H     -416.351      84.500     213.198
  H     -413.448      91.575     213.847
  H     -420.718      87.326     217.198
  H     -418.463      90.601     215.813
  H     -416.580      89.030     215.436
  H     -416.814      85.468     216.429
  H     -417.261      86.440     213.754
  H     -415.380      87.825     213.868
  H     -413.921      85.645     215.431
  H     -412.812      87.642     216.466
  H     -412.397      87.426     214.747
  P     -414.588      87.074     211.443
  C     -413.215      85.291     210.137
  O     -414.474      85.938     210.307
  O     -413.867      88.370     211.226
  O     -416.168      87.396     211.442
  H     -416.305      88.232     210.953
  H     -413.289      84.566     209.353
  H     -412.938      84.804     211.049
  H     -412.472      86.018     209.881

 6  7  8  9  10  11  12  13  14  15  16  26  31  32  33  34  35 0
 6-311+G(2d,p)
 ****
 36  37 0
 6-311+G(2d,p)
 ****
 1  2  3  4  5  17  18  19  20  21  22  23  24  25 0
 3-21G
 ****
 27  28  29  30  38  39  40  41  42  43  44  45 0
 3-21G
 ****


