%nproc=1
%NoSave
%Mem=1900MB
#P OB98/GEN NMR

erre ene a

0 1
  C     -116.257      62.116     183.766
  O     -116.340      61.655     185.105
  P     -116.146      62.744     186.271
  C     -114.211      64.320     187.028
  O     -114.615      63.220     186.216
  C     -113.036      63.914     187.912
  O     -113.475      62.996     188.933
  C     -111.908      63.196     187.181
  O     -111.123      64.107     186.425
  C     -111.181      62.548     188.355
  O     -110.352      63.518     189.016
  C     -112.350      62.141     189.269
  N     -112.296      57.467     191.375
  C     -111.783      58.649     191.790
  N     -111.818      59.845     191.161
  C     -112.474      59.748     189.994
  C     -113.030      58.609     189.433
  C     -112.927      57.426     190.178
  N     -113.450      56.219     189.753
  N     -113.602      58.893     188.209
  C     -113.400      60.184     188.038
  N     -112.740      60.750     189.094
  O     -116.216      61.868     187.605
  O     -117.161      63.851     186.273
  H     -109.640      63.768     188.392
  H     -116.632      62.367     188.329
  H     -111.276      58.633     192.751
  H     -113.722      60.754     187.172
  H     -112.125      62.289     190.332
  H     -110.539      61.716     188.054
  H     -112.317      62.421     186.518
  H     -112.653      64.821     188.403
  H     -115.046      64.630     187.666
  H     -113.202      55.393     190.275
  H     -113.792      56.158     188.803
  H     -113.944      65.162     186.378
  P     -110.590      63.609     184.995
  C     -109.598      61.368     184.211
  O     -109.876      62.203     185.321
  O     -109.345      64.584     184.754
  O     -111.618      63.579     183.912
  H     -108.765      64.633     185.532
  H     -109.069      60.481     184.568
  H     -108.966      61.894     183.490
  H     -110.534      61.058     183.735
  H     -116.403      61.294     183.096
  H     -115.292      62.547     183.596
  H     -117.013      62.854     183.595

 3  4  5  6  7  8  9  10  11  12  22  25  29  30  31  32 0
 6-311+G(2d,p)
 ****
 33  36  37 0
 6-311+G(2d,p)
 ****
 1  2  13  14  15  16  17  18  19  20  21  23  24  26 0
 3-21G
 ****
 27  28  34  35  38  39  40  41  42  43  44  45  46  47  48 0
 3-21G
 ****


