%nproc=1
%NoSave
%Mem=1900MB
#P OB98/GEN NMR

erre ene a

0 1
  C      668.489    -172.493      93.175
  O      669.110    -173.529      92.397
  P      670.708    -173.630      92.418
  C      671.131    -175.378      94.296
  O      671.104    -175.104      92.905
  C      672.258    -176.361      94.625
  O      672.640    -176.288      96.016
  C      671.896    -177.818      94.367
  O      672.063    -178.171      93.002
  C      672.936    -178.535      95.222
  O      674.192    -178.580      94.513
  C      673.040    -177.617      96.442
  N      672.931    -180.190     100.798
  C      673.982    -179.943      99.937
  N      675.184    -180.452     100.294
  N      673.869    -179.260      98.826
  C      672.612    -178.803      98.613
  C      671.492    -178.979      99.391
  C      671.630    -179.751     100.607
  O      670.730    -180.011     101.401
  N      670.396    -178.369      98.837
  C      670.858    -177.797      97.738
  N      672.196    -178.048      97.545
  O      671.106    -172.723      93.679
  O      671.370    -173.157      91.167
  H      674.362    -177.675      94.188
  H      672.002    -172.353      93.551
  H      673.078    -180.727     101.639
  H      670.268    -177.202      97.053
  H      674.064    -177.546      96.828
  H      672.652    -179.568      95.436
  H      675.357    -180.942     101.153
  H      670.885    -178.046      94.737
  H      675.972    -180.253      99.684
  H      673.131    -176.098      94.011
  H      670.173    -175.794      94.620
  H      671.248    -174.436      94.841
  P      670.745    -178.488      92.144
  C      671.189    -176.512      90.522
  O      671.016    -177.908      90.679
  O      669.664    -177.486      92.772
  O      670.288    -179.906      92.208
  H      668.772    -177.884      92.719
  H      671.524    -176.316      89.497
  H      671.940    -176.133      91.218
  H      670.240    -175.995      90.687
  H      667.427    -172.551      93.063
  H      668.832    -171.538      92.836
  H      668.746    -172.619      94.206

 3  4  5  6  7  8  9  10  11  12  23  26  30  31 0
 6-311+G(2d,p)
 ****
 33  35  36  37  38 0
 6-311+G(2d,p)
 ****
 1  2  13  14  15  16  17  18  19  20  21  22  24  25 0
 3-21G
 ****
 27  28  29  32  34  39  40  41  42  43  44  45  46  47  48  49 0
 3-21G
 ****


