%nproc=1
%NoSave
%Mem=1900MB
#P OB98/GEN NMR

erre ene a

0 1
  C      418.270    -297.671       8.374
  O      418.180    -299.073       8.569
  H      418.272    -297.188       9.352
  H      417.414    -297.313       7.807
  H      419.195    -297.417       7.846
  P      418.273    -299.996       7.257
  C      419.935    -301.771       8.193
  O      419.728    -300.690       7.302
  C      421.098    -302.638       7.701
  O      420.676    -303.317       6.483
  C      422.355    -301.823       7.367
  O      423.501    -302.571       7.732
  C      422.289    -301.683       5.849
  O      423.547    -301.435       5.245
  C      421.672    -303.032       5.460
  N      421.044    -302.984       4.138
  C      421.435    -303.951       3.213
  O      422.216    -304.871       3.458
  N      420.899    -303.834       1.962
  C      420.033    -302.862       1.545
  O      419.590    -302.798       0.414
  C      419.650    -301.872       2.566
  C      420.173    -301.976       3.789
  O      418.403    -298.933       6.067
  O      417.134    -300.938       7.051
  H      417.540    -298.687       5.729
  H      423.460    -301.634       4.285
  H      421.168    -304.527       1.285
  H      418.988    -301.069       2.265
  H      419.933    -301.247       4.563
  H      422.417    -303.820       5.498
  H      421.627    -300.857       5.575
  H      422.377    -300.849       7.856
  H      421.303    -303.403       8.442
  H      419.015    -302.375       8.244
  H      420.153    -301.375       9.194
  P      423.906    -302.639       9.296
  C      424.105    -305.244       9.444
  O      423.382    -304.072       9.807
  O      422.850    -301.603       9.902
  O      425.340    -302.340       9.545
  H      421.972    -301.620       9.473
  H      423.625    -306.103       9.863
  H      425.105    -305.176       9.818
  H      424.128    -305.333       8.378

 6  7  8  9  10  11  12  13  14  15  16  27  31  32  33  34  35 0
 6-311+G(2d,p)
 ****
 36  37 0
 6-311+G(2d,p)
 ****
 1  2  3  4  5  17  18  19  20  21  22  23  24  25 0
 3-21G
 ****
 26  28  29  30  38  39  40  41  42  43  44  45 0
 3-21G
 ****


