%nproc=1
%NoSave
%Mem=1900MB
#P OB98/GEN NMR

erre ene a

0 1
  C     -447.234      51.332     239.881
  O     -446.224      51.046     240.828
  H     -447.664      50.403     239.492
  H     -448.029      51.901     240.369
  H     -446.831      51.927     239.056
  P     -444.954      50.213     240.303
  C     -442.426      50.225     240.907
  O     -443.668      50.893     240.999
  C     -441.291      51.248     240.893
  O     -441.346      52.040     239.684
  C     -441.335      52.246     242.049
  O     -440.796      51.713     243.251
  C     -440.460      53.354     241.490
  O     -439.073      52.983     241.608
  C     -440.886      53.386     240.019
  N     -442.694      56.784     236.660
  C     -441.589      56.017     236.649
  N     -441.175      55.151     237.591
  C     -442.049      55.099     238.618
  C     -443.211      55.824     238.763
  C     -443.537      56.705     237.713
  N     -444.663      57.508     237.717
  N     -443.828      55.544     239.967
  C     -443.060      54.627     240.519
  N     -441.951      54.329     239.747
  O     -444.816      50.659     238.769
  O     -445.034      48.731     240.471
  H     -438.889      52.864     242.556
  H     -444.300      49.995     238.280
  H     -440.947      56.129     235.783
  H     -443.250      54.145     241.470
  H     -440.057      53.628     239.341
  H     -440.585      54.304     242.026
  H     -442.355      52.638     242.199
  H     -440.337      50.702     240.901
  H     -442.392      49.643     239.977
  H     -444.706      58.229     237.012
  H     -445.209      57.556     238.565
  H     -442.315      49.542     241.757
  P     -440.458      52.741     244.432
  C     -439.929      52.404     246.959
  O     -440.592      51.921     245.794
  O     -441.747      53.715     244.454
  O     -439.180      53.502     244.251
  H     -441.513      54.588     244.815
  H     -440.120      51.743     247.778
  H     -440.293      53.381     247.197
  H     -438.876      52.451     246.776

 6  7  8  9  10  11  12  13  14  15  25  28  32  33  34  35 0
 6-311+G(2d,p)
 ****
 36  39  40 0
 6-311+G(2d,p)
 ****
 1  2  3  4  5  16  17  18  19  20  21  22  23  24 0
 3-21G
 ****
 26  27  29  30  31  37  38  41  42  43  44  45  46  47 0
 3-21G
 ****
 48 0
 3-21G
 ****


