%nproc=1
%NoSave
%Mem=1900MB
#P OB98/GEN NMR

erre ene a

0 1
  C      -49.900     -10.284      -9.372
  O      -49.729      -8.922      -8.989
  P      -50.796      -7.762      -9.227
  C      -49.761      -5.925     -10.798
  O      -50.532      -7.111     -10.663
  C      -50.527      -4.856     -11.592
  O      -50.712      -5.332     -12.959
  C      -51.921      -4.583     -11.015
  O      -52.266      -3.202     -10.989
  C      -52.811      -5.504     -11.832
  O      -54.181      -5.135     -11.808
  C      -52.131      -5.474     -13.198
  N      -55.143      -7.696     -16.669
  C      -55.315      -6.503     -15.996
  N      -56.443      -5.813     -16.266
  N      -54.465      -6.034     -15.122
  C      -53.421      -6.858     -14.887
  C      -53.148      -8.070     -15.478
  C      -54.069      -8.556     -16.481
  O      -53.954      -9.597     -17.122
  N      -51.987      -8.614     -14.990
  C      -51.570      -7.743     -14.093
  N      -52.405      -6.653     -14.000
  O      -51.000      -6.819      -8.090
  O      -52.182      -8.559      -9.449
  H      -54.641      -5.648     -12.498
  H      -52.889      -7.982      -9.095
  H      -55.818      -7.998     -17.349
  H      -50.670      -7.842     -13.497
  H      -52.455      -4.622     -13.801
  H      -52.742      -6.507     -11.392
  H      -57.194      -6.174     -16.832
  H      -51.970      -4.878      -9.962
  H      -56.669      -5.060     -15.614
  H      -49.922      -3.944     -11.630
  H      -48.856      -6.215     -11.343
  H      -49.454      -5.550      -9.822
  P      -51.865      -2.094      -9.911
  C      -53.724      -2.704      -8.254
  O      -52.329      -2.599      -8.465
  O      -52.851      -0.866     -10.194
  O      -50.444      -1.642      -9.981
  H      -52.330      -0.077     -10.445
  H      -53.911      -2.793      -7.181
  H      -54.105      -3.597      -8.756
  H      -54.241      -1.818      -8.632
  H      -49.032     -10.845      -9.093
  H      -50.037     -10.342     -10.432
  H      -50.759     -10.688      -8.879

 3  4  5  6  7  8  9  10  11  12  23  26  30  31 0
 6-311+G(2d,p)
 ****
 33  35  36  37  38 0
 6-311+G(2d,p)
 ****
 1  2  13  14  15  16  17  18  19  20  21  22  24  25 0
 3-21G
 ****
 27  28  29  32  34  39  40  41  42  43  44  45  46  47  48  49 0
 3-21G
 ****


