%nproc=1
%NoSave
%Mem=1900MB
#P OB98/GEN NMR

erre ene a

0 1
  C      178.944    -563.644    -108.330
  O      180.157    -562.955    -108.584
  H      178.241    -562.951    -107.859
  H      179.105    -564.490    -107.660
  H      178.505    -563.991    -109.273
  P      181.432    -563.816    -109.037
  C      182.528    -565.993    -108.180
  O      181.665    -564.898    -107.871
  C      183.689    -566.064    -107.181
  O      183.216    -566.523    -105.897
  C      184.775    -567.053    -107.575
  O      185.533    -566.667    -108.714
  C      185.487    -567.313    -106.255
  O      186.502    -566.354    -105.961
  C      184.325    -567.161    -105.234
  N      183.930    -568.454    -104.672
  C      184.794    -568.977    -103.696
  O      185.844    -568.409    -103.351
  N      184.445    -570.180    -103.169
  C      183.368    -570.943    -103.547
  O      183.131    -572.033    -103.066
  C      182.506    -570.345    -104.595
  C      182.825    -569.152    -105.090
  O      182.663    -563.029    -109.383
  O      180.871    -564.708    -110.252
  H      187.198    -566.461    -106.637
  H      181.619    -565.082    -110.796
  H      185.053    -570.572    -102.467
  H      181.643    -570.925    -104.914
  H      182.206    -568.698    -105.867
  H      184.620    -566.512    -104.409
  H      185.955    -568.301    -106.238
  H      184.293    -568.000    -107.852
  H      184.100    -565.059    -107.056
  H      182.936    -565.831    -109.192
  H      181.954    -566.928    -108.161
  P      186.323    -567.691    -109.633
  C      188.461    -569.174    -109.443
  O      187.660    -568.160    -108.852
  O      186.426    -567.363    -111.085
  O      185.400    -569.020    -109.502
  H      185.427    -569.492    -110.370
  H      189.303    -569.375    -108.814
  H      188.802    -568.845    -110.402
  H      187.881    -570.066    -109.557

 6  7  8  9  10  11  12  13  14  15  16  26  31  32  33  34  35 0
 6-311+G(2d,p)
 ****
 36  37 0
 6-311+G(2d,p)
 ****
 1  2  3  4  5  17  18  19  20  21  22  23  24  25 0
 3-21G
 ****
 27  28  29  30  38  39  40  41  42  43  44  45 0
 3-21G
 ****


