%nproc=1
%NoSave
%Mem=1900MB
#P OB98/GEN NMR

erre ene a

0 1
  C      174.876     162.780     219.930
  O      174.449     161.582     220.589
  P      173.137     161.676     221.511
  C      171.755     161.160     219.345
  O      171.925     161.966     220.503
  C      170.268     160.951     219.067
  O      169.641     160.232     220.155
  C      169.475     162.242     218.924
  O      169.726     162.870     217.678
  C      168.053     161.728     219.107
  O      167.569     161.150     217.886
  C      168.247     160.625     220.170
  N      167.824     161.034     221.503
  C      166.456     160.959     221.753
  O      165.637     160.598     220.912
  N      166.058     161.336     223.006
  C      166.871     161.799     224.001
  O      166.457     162.113     225.109
  C      168.298     161.903     223.661
  C      168.704     161.522     222.446
  O      173.381     163.071     222.253
  O      172.972     160.498     222.410
  H      173.824     163.729     221.690
  H      167.430     161.892     217.264
  H      165.073     161.277     223.213
  H      168.968     162.291     224.416
  H      169.753     161.595     222.176
  H      167.676     159.730     219.894
  H      167.355     162.519     219.394
  H      169.729     162.928     219.741
  H      170.175     160.347     218.155
  H      172.232     160.188     219.495
  H      172.253     161.646     218.501
  P      169.686     164.477     217.654
  C      171.161     164.630     215.501
  O      170.997     164.951     216.864
  O      170.010     164.817     219.185
  O      168.395     165.037     217.156
  H      170.735     164.283     219.547
  H      171.901     165.308     215.067
  H      170.224     164.734     214.949
  H      171.528     163.604     215.408
  H      175.754     162.576     219.354
  H      175.095     163.530     220.661
  H      174.098     163.128     219.283

 3  4  5  6  7  8  9  10  11  12  13  24  28  29  30  31  32 0
 6-311+G(2d,p)
 ****
 33  34 0
 6-311+G(2d,p)
 ****
 1  2  14  15  16  17  18  19  20  21  22  23  25  26  27 0
 3-21G
 ****
 35  36  37  38  39  40  41  42  43  44  45 0
 3-21G
 ****


