%nproc=1
%NoSave
%Mem=1900MB
#P OB98/GEN NMR

erre ene a

0 1
  C     -171.975    -299.331    -133.572
  O     -172.020    -298.218    -134.443
  H     -172.598    -300.128    -133.988
  H     -172.377    -299.044    -132.597
  H     -170.953    -299.702    -133.461
  P     -170.890    -297.093    -134.258
  C     -169.852    -295.834    -132.237
  O     -170.740    -296.853    -132.673
  C     -170.199    -295.398    -130.812
  O     -171.159    -294.295    -130.885
  C     -170.826    -296.506    -129.947
  O     -170.367    -296.363    -128.601
  C     -172.308    -296.161    -129.980
  O     -173.016    -296.697    -128.866
  C     -172.242    -294.635    -129.993
  N     -175.623    -291.112    -128.813
  C     -174.358    -291.347    -128.313
  N     -173.944    -290.560    -127.296
  N     -173.564    -292.280    -128.769
  C     -174.091    -292.981    -129.801
  C     -175.328    -292.855    -130.384
  C     -176.209    -291.829    -129.859
  O     -177.348    -291.587    -130.247
  N     -175.512    -293.801    -131.363
  C     -174.391    -294.512    -131.359
  N     -173.502    -294.053    -130.426
  O     -171.630    -295.767    -134.772
  O     -169.614    -297.343    -134.989
  H     -173.913    -296.304    -128.856
  H     -171.411    -295.610    -135.713
  H     -176.203    -290.394    -128.416
  H     -174.192    -295.365    -131.986
  H     -172.019    -294.213    -129.006
  H     -172.765    -296.542    -130.900
  H     -174.489    -289.803    -126.911
  H     -170.619    -297.522    -130.306
  H     -173.000    -290.693    -126.944
  H     -169.294    -295.002    -130.335
  H     -169.937    -294.972    -132.907
  H     -168.824    -296.210    -132.278
  P     -168.980    -297.069    -128.200
  C     -168.207    -299.371    -127.253
  O     -169.294    -298.535    -127.626
  O     -168.528    -296.257    -126.896
  O     -167.939    -297.011    -129.274
  H     -167.554    -296.187    -126.870
  H     -168.583    -300.306    -126.893
  H     -167.639    -298.895    -126.482
  H     -167.580    -299.542    -128.103

 6  7  8  9  10  11  12  13  14  15  26  29  33  34 0
 6-311+G(2d,p)
 ****
 36  38  39  40  41 0
 6-311+G(2d,p)
 ****
 1  2  3  4  5  16  17  18  19  20  21  22  23  24  25 0
 3-21G
 ****
 27  28  30  31  32  35  37  42  43  44  45  46  47 0
 3-21G
 ****
 48  49 0
 3-21G
 ****


