%nproc=1
%NoSave
%Mem=1900MB
#P OB98/GEN NMR

erre ene a

0 1
  C     -860.199     306.186    -977.039
  O     -860.388     307.574    -977.340
  P     -860.503     308.073    -978.858
  C     -858.467     309.635    -978.573
  O     -859.039     308.523    -979.278
  C     -857.112     309.998    -979.147
  O     -856.201     308.899    -978.946
  C     -857.083     310.270    -980.672
  O     -857.473     311.590    -981.056
  C     -855.618     310.055    -980.974
  O     -854.875     311.247    -980.576
  C     -855.241     308.892    -980.059
  N     -852.523     304.936    -981.861
  C     -852.165     306.070    -981.189
  N     -852.935     307.088    -980.758
  C     -854.228     306.831    -981.037
  C     -854.764     305.733    -981.701
  C     -853.837     304.754    -982.140
  N     -854.229     303.597    -982.818
  N     -856.125     305.840    -981.857
  C     -856.419     306.958    -981.256
  N     -855.316     307.580    -980.743
  O     -861.576     309.110    -979.087
  O     -860.762     306.739    -979.710
  H     -854.966     311.318    -979.606
  H     -861.115     306.962    -980.598
  H     -851.108     306.166    -980.982
  H     -857.426     307.368    -981.147
  H     -854.249     308.979    -979.614
  H     -855.417     309.889    -982.035
  H     -857.674     309.490    -981.211
  H     -856.734     310.892    -978.617
  H     -858.338     309.319    -977.516
  H     -853.491     302.881    -982.938
  H     -855.192     303.384    -982.851
  H     -859.162     310.482    -978.595
  P     -857.703     311.864    -982.618
  C     -855.560     313.395    -982.590
  O     -856.284     312.319    -983.180
  O     -858.833     312.750    -982.929
  O     -857.857     310.379    -983.228
  H     -857.081     309.812    -983.187
  H     -854.567     313.454    -983.004
  H     -855.489     313.258    -981.498
  H     -856.089     314.350    -982.798
  H     -860.147     306.055    -975.978
  H     -859.289     305.845    -977.486
  H     -861.021     305.622    -977.428

 3  4  5  6  7  8  9  10  11  12  22  25  29  30  31  32 0
 6-311+G(2d,p)
 ****
 33  36  37 0
 6-311+G(2d,p)
 ****
 1  2  13  14  15  16  17  18  19  20  21  23  24  26 0
 3-21G
 ****
 27  28  34  35  38  39  40  41  42  43  44  45  46  47  48 0
 3-21G
 ****


