%nproc=1
%NoSave
%Mem=1900MB
#P OB98/GEN NMR

erre ene a

0 1
  C      -84.592     415.134     823.931
  O      -83.394     414.539     824.389
  H      -84.406     415.589     822.954
  H      -84.906     415.916     824.626
  H      -85.390     414.391     823.825
  P      -83.454     413.553     825.654
  C      -82.268     411.339     826.245
  O      -82.205     412.549     825.507
  C      -81.224     410.339     825.734
  O      -81.639     409.851     824.429
  C      -79.815     410.933     825.583
  O      -78.874     409.875     825.825
  C      -79.800     411.322     824.118
  O      -78.490     411.520     823.648
  C      -80.570     410.146     823.498
  N      -81.071     410.442     822.159
  C      -80.163     410.309     821.112
  O      -78.984     409.987     821.278
  N      -80.638     410.598     819.867
  C      -81.891     411.056     819.575
  O      -82.247     411.331     818.436
  C      -82.787     411.229     820.720
  C      -82.351     410.913     821.948
  O      -84.764     412.884     825.896
  O      -83.012     414.471     826.891
  H      -78.008     412.154     824.224
  H      -83.448     414.160     827.711
  H      -79.993     410.486     819.096
  H      -83.786     411.603     820.524
  H      -82.988     411.038     822.813
  H      -79.926     409.253     823.435
  H      -80.347     412.257     823.959
  H      -79.625     411.775     826.252
  H      -81.214     409.468     826.410
  H      -83.274     410.916     826.116
  H      -82.102     411.545     827.310
  P      -78.403     409.480     827.305
  C      -78.366     407.378     828.814
  O      -78.534     407.887     827.488
  O      -79.061     410.270     828.397
  O      -76.819     409.720     827.311
  H      -76.516     409.938     828.220
  H      -78.475     406.314     828.804
  H      -79.106     407.807     829.457
  H      -77.391     407.633     829.173

 6  7  8  9  10  11  12  13  14  15  16  26  31  32  33  34  35 0
 6-311+G(2d,p)
 ****
 36  37 0
 6-311+G(2d,p)
 ****
 1  2  3  4  5  17  18  19  20  21  22  23  24  25 0
 3-21G
 ****
 27  28  29  30  38  39  40  41  42  43  44  45 0
 3-21G
 ****


