%nproc=1
%NoSave
%Mem=1900MB
#P OB98/GEN NMR

erre ene a

0 1
  C     -144.904      99.497     613.788
  O     -145.514     100.377     614.741
  P     -146.647     101.435     614.311
  C     -146.893     103.803     613.349
  O     -145.981     102.820     613.816
  C     -146.196     104.966     612.619
  O     -145.473     105.812     613.550
  C     -145.195     104.539     611.533
  O     -145.219     105.561     610.535
  C     -143.870     104.583     612.292
  O     -142.733     104.636     611.446
  C     -144.084     105.824     613.151
  N     -139.809     107.819     615.170
  C     -140.519     108.138     614.062
  N     -141.660     107.586     613.618
  C     -142.108     106.635     614.460
  C     -141.498     106.201     615.630
  C     -140.292     106.835     615.975
  N     -139.537     106.484     617.084
  N     -142.226     105.182     616.217
  C     -143.252     104.994     615.399
  N     -143.223     105.850     614.325
  O     -147.732     101.624     615.337
  O     -147.271     100.821     612.971
  H     -142.601     105.560     611.180
  H     -148.251     100.867     613.018
  H     -140.096     108.938     613.448
  H     -144.016     104.244     615.528
  H     -143.903     106.743     612.574
  H     -143.782     103.669     612.910
  H     -145.405     103.558     611.100
  H     -146.990     105.589     612.177
  H     -147.449     104.208     614.205
  H     -138.643     106.928     617.195
  H     -139.811     105.674     617.618
  H     -147.624     103.331     612.678
  P     -145.677     105.257     609.032
  C     -144.503     104.804     606.797
  O     -144.336     105.077     608.171
  O     -146.655     106.238     608.453
  O     -146.288     103.773     609.079
  H     -146.851     103.625     608.300
  H     -144.803     103.758     606.660
  H     -143.556     104.979     606.277
  H     -145.267     105.459     606.366
  H     -144.182      98.881     614.282
  H     -144.420     100.074     613.028
  H     -145.655      98.879     613.342

 3  4  5  6  7  8  9  10  11  12  22  25  29  30  31  32 0
 6-311+G(2d,p)
 ****
 33  36  37 0
 6-311+G(2d,p)
 ****
 1  2  13  14  15  16  17  18  19  20  21  23  24  26 0
 3-21G
 ****
 27  28  34  35  38  39  40  41  42  43  44  45  46  47  48 0
 3-21G
 ****


