%nproc=1
%NoSave
%Mem=1900MB
#P OB98/GEN NMR

erre ene a

0 1
  C     -438.955     871.897      60.561
  O     -440.004     872.505      61.331
  P     -441.485     871.951      61.089
  C     -441.739     870.709      63.370
  O     -442.183     871.781      62.518
  C     -442.623     870.627      64.621
  O     -442.311     871.682      65.555
  C     -444.103     870.774      64.323
  O     -444.631     869.601      63.741
  C     -444.648     871.104      65.711
  O     -444.771     869.890      66.495
  C     -443.510     871.992      66.292
  N     -445.851     875.925      68.555
  C     -445.747     874.622      68.900
  N     -445.113     873.627      68.248
  C     -444.525     874.100      67.111
  C     -444.533     875.401      66.662
  C     -445.244     876.347      67.413
  N     -445.351     877.693      67.071
  N     -443.828     875.506      65.478
  C     -443.403     874.289      65.229
  N     -443.799     873.409      66.197
  O     -441.244     870.445      60.591
  O     -442.274     872.754      60.095
  H     -443.884     869.472      66.480
  H     -441.458     870.378      59.636
  H     -446.245     874.340      69.815
  H     -442.838     873.988      64.363
  H     -443.323     871.754      67.350
  H     -445.630     871.583      65.705
  H     -444.285     871.636      63.637
  H     -442.424     869.653      65.100
  H     -440.684     870.868      63.649
  H     -445.951     878.272      67.640
  H     -444.990     877.981      66.180
  H     -441.775     869.754      62.816
  P     -446.027     869.706      62.950
  C     -444.885     869.149      60.715
  O     -445.840     868.727      61.682
  O     -445.910     871.177      62.303
  O     -447.248     869.480      63.780
  H     -445.029     871.316      61.889
  H     -444.839     868.389      59.920
  H     -443.919     869.289      61.160
  H     -445.227     870.109      60.247
  H     -438.019     872.351      60.812
  H     -439.151     872.037      59.518
  H     -438.913     870.850      60.779

 3  4  5  6  7  8  9  10  11  12  22  25  29  30  31  32 0
 6-311+G(2d,p)
 ****
 33  36  37 0
 6-311+G(2d,p)
 ****
 1  2  13  14  15  16  17  18  19  20  21  23  24  26 0
 3-21G
 ****
 27  28  34  35  38  39  40  41  42  43  44  45  46  47  48 0
 3-21G
 ****


