%nproc=1
%NoSave
%Mem=1900MB
#P OB98/GEN NMR

erre ene a

0 1
  C     -213.965     255.041    -190.116
  O     -215.110     255.353    -190.878
  H     -214.021     255.579    -189.165
  H     -213.068     255.365    -190.650
  H     -213.901     253.968    -189.908
  P     -215.519     254.386    -192.086
  C     -215.029     255.129    -194.509
  O     -214.486     254.625    -193.293
  C     -215.185     256.650    -194.469
  O     -213.936     257.259    -194.079
  C     -215.558     257.237    -195.835
  O     -216.947     257.260    -196.107
  C     -214.994     258.654    -195.733
  O     -215.952     259.555    -195.154
  C     -213.784     258.488    -194.807
  N     -209.166     260.608    -195.392
  C     -210.231     261.048    -194.623
  N     -210.043     262.213    -193.967
  N     -211.364     260.403    -194.535
  C     -211.436     259.310    -195.329
  C     -210.454     258.790    -196.146
  C     -209.174     259.464    -196.181
  O     -208.198     259.108    -196.831
  N     -210.902     257.686    -196.833
  C     -212.176     257.595    -196.494
  N     -212.521     258.508    -195.526
  O     -216.869     255.044    -192.649
  O     -215.749     252.952    -191.712
  H     -216.121     259.266    -194.236
  H     -217.448     254.348    -193.007
  H     -208.305     261.129    -195.398
  H     -212.872     256.865    -196.890
  H     -213.741     259.293    -194.061
  H     -214.750     259.048    -196.724
  H     -209.227     262.790    -194.067
  H     -215.025     256.715    -196.640
  H     -210.859     262.661    -193.545
  H     -215.928     256.917    -193.705
  H     -216.002     254.655    -194.635
  H     -214.402     254.832    -195.356
  P     -217.491     257.514    -197.589
  C     -218.507     259.926    -197.842
  O     -217.381     259.076    -197.905
  O     -219.068     257.280    -197.440
  O     -216.893     256.653    -198.651
  H     -219.309     256.383    -197.740
  H     -218.214     260.925    -198.088
  H     -218.913     259.907    -196.852
  H     -219.247     259.590    -198.538

 6  7  8  9  10  11  12  13  14  15  26  29  33  34 0
 6-311+G(2d,p)
 ****
 36  38  39  40  41 0
 6-311+G(2d,p)
 ****
 1  2  3  4  5  16  17  18  19  20  21  22  23  24  25 0
 3-21G
 ****
 27  28  30  31  32  35  37  42  43  44  45  46  47 0
 3-21G
 ****
 48  49 0
 3-21G
 ****


