%nproc=1
%NoSave
%Mem=1900MB
#P OB98/GEN NMR

erre ene a

0 1
  C     -319.499     262.162      89.403
  O     -320.721     262.838      89.618
  H     -319.417     261.350      90.132
  H     -318.658     262.843      89.546
  H     -319.464     261.733      88.397
  P     -321.156     263.994      88.596
  C     -321.287     265.614      90.597
  O     -321.951     265.093      89.451
  C     -322.074     266.793      91.164
  O     -321.483     267.237      92.406
  C     -322.096     268.015      90.252
  O     -322.987     267.822      89.172
  C     -322.501     269.095      91.245
  O     -323.917     269.064      91.490
  C     -321.722     268.661      92.511
  N     -320.466     269.394      92.684
  C     -320.560     270.629      93.316
  O     -321.621     271.104      93.716
  N     -319.386     271.326      93.437
  C     -318.178     270.957      92.914
  O     -317.209     271.710      92.853
  C     -318.126     269.612      92.320
  C     -319.258     268.909      92.222
  O     -321.847     263.537      87.356
  O     -319.774     264.734      88.257
  H     -319.452     264.432      87.388
  H     -324.109     268.192      91.891
  H     -319.449     272.246      93.853
  H     -317.172     269.254      91.952
  H     -319.248     267.926      91.761
  H     -322.334     268.816      93.410
  H     -322.260     270.098      90.889
  H     -321.083     268.231      89.888
  H     -323.094     266.448      91.379
  H     -320.288     265.953      90.296
  H     -321.183     264.819      91.344
  P     -322.653     268.384      87.711
  C     -323.663     270.722      87.989
  O     -323.769     269.469      87.328
  O     -322.424     267.338      86.670
  O     -321.339     269.276      87.922
  H     -320.651     268.984      87.294
  H     -324.452     271.366      87.661
  H     -322.719     271.169      87.757
  H     -323.738     270.575      89.046

 6  7  8  9  10  11  12  13  14  15  16  27  31  32  33  34  35 0
 6-311+G(2d,p)
 ****
 36  37 0
 6-311+G(2d,p)
 ****
 1  2  3  4  5  17  18  19  20  21  22  23  24  25 0
 3-21G
 ****
 26  28  29  30  38  39  40  41  42  43  44  45 0
 3-21G
 ****


