%nproc=1
%NoSave
%Mem=1900MB
#P OB98/GEN NMR

erre ene a

0 1
  C      307.795    -288.607     450.899
  O      308.115    -287.509     450.029
  P      309.396    -286.593     450.363
  C      309.980    -284.487     451.789
  O      309.000    -285.447     451.419
  C      309.410    -283.485     452.809
  O      308.212    -282.835     452.273
  C      309.012    -284.106     454.158
  O      309.251    -283.114     455.166
  C      307.515    -284.325     453.989
  O      306.832    -284.477     455.220
  C      307.140    -283.065     453.208
  N      305.852    -283.144     452.517
  C      304.689    -283.038     453.281
  O      304.677    -282.931     454.504
  N      303.517    -283.082     452.573
  C      303.382    -283.254     451.227
  O      302.305    -283.319     450.664
  C      304.648    -283.398     450.479
  C      305.801    -283.332     451.148
  O      309.579    -285.760     449.005
  O      310.654    -287.341     450.679
  H      306.850    -283.610     455.671
  H      310.514    -285.757     448.747
  H      302.664    -282.984     453.106
  H      304.587    -283.541     449.406
  H      306.741    -283.427     450.612
  H      307.130    -282.204     453.894
  H      307.354    -285.237     453.402
  H      309.563    -285.022     454.386
  H      310.154    -282.693     452.958
  H      310.304    -283.938     450.897
  H      310.848    -285.004     452.211
  P      310.254    -283.477     456.372
  C      309.921    -284.299     458.832
  O      309.363    -284.082     457.562
  O      310.616    -282.007     456.896
  O      311.443    -284.276     455.966
  H      309.839    -281.431     456.981
  H      310.580    -283.484     459.134
  H      310.478    -285.243     458.831
  H      309.108    -284.371     459.570
  H      306.922    -289.107     450.535
  H      307.609    -288.238     451.886
  H      308.615    -289.293     450.923

 3  4  5  6  7  8  9  10  11  12  13  23  28  29  30  31  32 0
 6-311+G(2d,p)
 ****
 33  34 0
 6-311+G(2d,p)
 ****
 1  2  14  15  16  17  18  19  20  21  22  24  25  26 0
 3-21G
 ****
 27  35  36  37  38  39  40  41  42  43  44  45 0
 3-21G
 ****


