%nproc=1
%NoSave
%Mem=1900MB
#P OB98/GEN NMR

erre ene a

0 1
  C      -42.602      53.724     430.348
  O      -42.390      53.213     431.670
  P      -43.599      52.994     432.704
  C      -44.484      50.852     431.575
  O      -44.774      52.194     431.957
  C      -45.651      49.909     431.886
  O      -46.813      50.261     431.109
  C      -45.375      48.439     431.584
  O      -44.590      47.858     432.611
  C      -46.791      47.887     431.464
  O      -47.342      47.630     432.766
  C      -47.530      49.051     430.791
  N      -50.767      48.101     426.946
  C      -50.957      48.225     428.278
  N      -50.042      48.474     429.242
  C      -48.820      48.623     428.703
  C      -48.470      48.523     427.363
  C      -49.510      48.245     426.460
  N      -49.311      48.103     425.106
  N      -47.115      48.712     427.194
  C      -46.657      48.943     428.410
  N      -47.646      48.900     429.352
  O      -44.048      54.238     433.396
  O      -43.040      51.928     433.762
  H      -47.259      48.449     433.286
  H      -43.482      52.055     434.622
  H      -51.982      48.110     428.618
  H      -45.623      49.146     428.654
  H      -48.542      49.173     431.192
  H      -46.834      46.950     430.898
  H      -44.864      48.344     430.617
  H      -45.913      50.039     432.942
  H      -43.591      50.523     432.122
  H      -50.104      47.872     424.527
  H      -48.372      48.161     424.740
  H      -44.267      50.835     430.501
  P      -43.510      46.730     432.255
  C      -41.610      48.333     431.620
  O      -42.522      47.354     431.158
  O      -44.065      45.388     431.921
  O      -42.586      46.667     433.562
  H      -42.225      45.767     433.660
  H      -42.119      49.295     431.707
  H      -40.796      48.424     430.895
  H      -41.191      48.052     432.591
  H      -41.665      53.788     429.836
  H      -43.043      54.697     430.408
  H      -43.257      53.068     429.813

 3  4  5  6  7  8  9  10  11  12  22  25  29  30  31  32 0
 6-311+G(2d,p)
 ****
 33  36  37 0
 6-311+G(2d,p)
 ****
 1  2  13  14  15  16  17  18  19  20  21  23  24  26 0
 3-21G
 ****
 27  28  34  35  38  39  40  41  42  43  44  45  46  47  48 0
 3-21G
 ****


