%nproc=1
%NoSave
%Mem=1900MB
#P OB98/GEN NMR

erre ene a

0 1
  C       49.044      90.620       2.791
  O       49.335      90.446       4.162
  H       49.930      90.355       2.209
  H       48.785      91.663       2.585
  H       48.219      89.966       2.498
  P       48.174      90.837       5.198
  C       49.171      93.165       5.675
  O       48.085      92.439       5.112
  C       49.026      94.657       5.375
  O       49.237      94.865       3.953
  C       47.644      95.221       5.723
  O       47.793      96.558       6.203
  C       46.935      95.249       4.380
  O       45.863      96.187       4.352
  C       48.094      95.569       3.439
  N       46.820      97.279      -1.183
  C       47.210      97.916      -0.058
  N       47.556      97.377       1.129
  C       47.525      96.033       1.066
  C       47.149      95.245      -0.006
  C       46.772      95.926      -1.177
  N       46.339      95.289      -2.316
  N       47.203      93.909       0.337
  C       47.615      93.890       1.592
  N       47.802      95.154       2.079
  O       48.323      90.282       6.574
  O       46.859      90.377       4.411
  H       45.391      96.093       3.498
  H       46.877      90.673       3.481
  H       47.240      99.002      -0.116
  H       47.774      92.999       2.189
  H       48.329      96.641       3.409
  H       46.518      94.260       4.159
  H       47.108      94.621       6.457
  H       49.821      95.202       5.897
  H       50.120      92.801       5.266
  H       46.090      95.855      -3.112
  H       46.302      94.281      -2.336
  H       49.169      92.992       6.756
  P       47.581      96.853       7.764
  C       45.195      97.771       8.084
  O       46.032      96.625       8.126
  O       48.162      98.131       8.266
  O       48.284      95.591       8.460
  H       48.792      95.897       9.237
  H       44.195      97.492       8.342
  H       45.206      98.185       7.097
  H       45.553      98.500       8.781

 6  7  8  9  10  11  12  13  14  15  25  28  32  33  34  35 0
 6-311+G(2d,p)
 ****
 36  39  40 0
 6-311+G(2d,p)
 ****
 1  2  3  4  5  16  17  18  19  20  21  22  23  24 0
 3-21G
 ****
 26  27  29  30  31  37  38  41  42  43  44  45  46  47 0
 3-21G
 ****
 48 0
 3-21G
 ****


