%nproc=1
%NoSave
%Mem=1900MB
#P OB98/GEN NMR

erre ene a

0 1
  C      355.354      30.199     818.945
  O      356.347      29.295     819.375
  H      355.637      31.211     819.247
  H      354.393      29.949     819.402
  H      355.264      30.176     817.851
  P      356.130      27.752     819.000
  C      353.878      27.187     820.172
  O      355.300      27.105     820.212
  C      353.299      26.620     821.464
  O      353.415      25.176     821.460
  C      354.014      27.084     822.723
  O      353.639      28.394     823.113
  C      353.598      26.014     823.717
  O      352.310      26.295     824.280
  C      353.533      24.753     822.843
  N      355.604      21.034     825.669
  C      354.378      21.616     825.693
  N      353.902      22.594     824.899
  C      354.824      22.949     823.979
  C      356.105      22.447     823.831
  C      356.492      21.444     824.733
  N      357.747      20.875     824.730
  N      356.766      23.101     822.802
  C      355.888      23.967     822.339
  N      354.706      23.914     823.012
  O      357.595      27.127     819.166
  O      355.573      27.503     817.640
  H      352.028      25.477     824.740
  H      358.016      27.038     818.292
  H      353.701      21.247     826.457
  H      356.071      24.658     821.521
  H      352.652      24.131     823.069
  H      354.312      25.944     824.539
  H      355.102      27.027     822.579
  H      352.225      26.876     821.513
  H      353.506      26.609     819.323
  H      353.587      28.232     820.045
  H      357.977      20.204     825.435
  H      358.451      21.247     824.106
  P      354.790      29.381     823.641
  C      354.914      28.344     826.038
  O      354.633      29.479     825.229
  O      354.340      30.820     823.117
  O      356.171      29.027     823.187
  H      355.124      31.351     822.877
  H      354.756      28.592     827.067
  H      355.932      28.047     825.895
  H      354.265      27.539     825.761

 6  7  8  9  10  11  12  13  14  15  25  28  32  33  34  35 0
 6-311+G(2d,p)
 ****
 36  37  40 0
 6-311+G(2d,p)
 ****
 1  2  3  4  5  16  17  18  19  20  21  22  23  24 0
 3-21G
 ****
 26  27  29  30  31  38  39 41  42  43  44  45  46  47  48 0
 3-21G
 ****


