%nproc=1
%NoSave
%Mem=1900MB
#P OB98/GEN NMR

erre ene a

0 1
  C     -615.933    -208.261      45.412
  O     -616.341    -208.732      46.680
  H     -616.504    -208.789      44.643
  H     -614.872    -208.467      45.261
  H     -616.124    -207.188      45.320
  P     -615.747    -207.982      47.969
  C     -618.032    -206.985      48.688
  O     -616.957    -207.847      49.019
  C     -619.307    -207.417      49.415
  O     -619.883    -208.550      48.716
  C     -619.076    -207.829      50.870
  O     -620.178    -207.373      51.660
  C     -619.080    -209.344      50.820
  O     -619.444    -209.936      52.068
  C     -620.063    -209.614      49.673
  N     -619.841    -210.926      49.074
  C     -620.125    -212.038      49.873
  O     -620.528    -211.883      51.027
  N     -619.886    -213.291      49.374
  C     -619.332    -213.424      48.207
  N     -619.094    -214.694      47.780
  C     -618.955    -212.280      47.357
  C     -619.241    -211.071      47.843
  O     -615.533    -206.482      47.463
  O     -614.500    -208.576      48.537
  H     -619.599    -210.896      51.920
  H     -614.773    -206.060      47.911
  H     -618.472    -212.440      46.407
  H     -618.999    -210.173      47.292
  H     -621.101    -209.560      50.034
  H     -618.080    -209.707      50.554
  H     -618.142    -207.433      51.285
  H     -620.037    -206.598      49.352
  H     -619.351    -215.452      48.403
  H     -618.206    -207.030      47.608
  H     -618.629    -214.917      46.915
  H     -617.769    -205.956      48.959
  P     -620.029    -207.494      53.248
  C     -619.933    -204.913      53.533
  O     -620.560    -206.134      53.905
  O     -618.445    -207.435      53.477
  O     -620.620    -208.742      53.812
  H     -618.115    -208.314      53.737
  H     -620.397    -204.101      54.053
  H     -620.036    -204.766      52.478
  H     -618.895    -204.953      53.788

 6  7  8  9  10  11  12  13  14  15  16  26  30  31  32  33  35 0
 6-311+G(2d,p)
 ****
 37  38 0
 6-311+G(2d,p)
 ****
 1  2  3  4  5  17  18  19  20  21  22  23  24  25 0
 3-21G
 ****
 27  28  29  34  36  39  40  41  42  43  44  45  46 0
 3-21G
 ****


