%nproc=1
%NoSave
%Mem=1900MB
#P OB98/GEN NMR

erre ene a

0 1
  C     -162.851    -324.123     204.495
  O     -162.575    -323.149     203.510
  H     -163.186    -325.036     203.997
  H     -163.645    -323.778     205.162
  H     -161.950    -324.352     205.071
  P     -162.119    -321.685     203.979
  C     -164.424    -320.561     203.688
  O     -163.415    -320.975     204.604
  C     -165.511    -319.767     204.422
  O     -166.373    -319.162     203.419
  C     -166.379    -320.656     205.324
  O     -166.466    -320.169     206.664
  C     -167.675    -320.802     204.533
  O     -168.817    -321.061     205.325
  C     -167.737    -319.505     203.724
  N     -168.525    -319.610     202.502
  C     -169.875    -319.272     202.575
  O     -170.450    -318.884     203.590
  N     -170.583    -319.396     201.405
  C     -170.093    -319.824     200.205
  O     -170.771    -319.907     199.193
  C     -168.667    -320.187     200.194
  C     -167.962    -320.068     201.322
  O     -161.395    -320.877     202.956
  O     -161.204    -321.958     205.266
  H     -168.857    -320.364     206.012
  H     -160.264    -321.830     205.030
  H     -171.556    -319.143     201.444
  H     -168.244    -320.545     199.261
  H     -166.905    -320.328     201.349
  H     -168.164    -318.696     204.322
  H     -167.562    -321.648     203.842
  H     -165.925    -321.647     205.448
  H     -165.040    -318.954     204.983
  H     -164.851    -321.462     203.231
  H     -163.978    -319.943     202.902
  P     -165.662    -320.762     207.910
  C     -167.389    -322.672     208.467
  O     -166.069    -322.298     208.090
  O     -165.661    -319.917     209.142
  O     -164.144    -320.852     207.381
  H     -163.568    -320.702     208.156
  H     -167.453    -323.738     208.532
  H     -168.083    -322.317     207.734
  H     -167.624    -322.242     209.418

 6  7  8  9  10  11  12  13  14  15  16  26  31  32  33  34  35 0
 6-311+G(2d,p)
 ****
 36  37 0
 6-311+G(2d,p)
 ****
 1  2  3  4  5  17  18  19  20  21  22  23  24  25 0
 3-21G
 ****
 27  28  29  30  38  39  40  41  42  43  44  45 0
 3-21G
 ****


