%nproc=1
%NoSave
%Mem=1900MB
#P OB98/GEN NMR

erre ene a

0 1
  C     -115.509     -27.170    -102.170
  O     -116.062     -27.341    -100.880
  H     -116.311     -27.225    -102.909
  H     -114.793     -27.974    -102.370
  H     -115.013     -26.198    -102.256
  P     -115.123     -26.993     -99.629
  C     -114.718     -24.468    -100.061
  O     -115.374     -25.446     -99.267
  C     -115.567     -23.197    -100.150
  O     -116.908     -23.563    -100.578
  C     -115.696     -22.442     -98.819
  O     -115.664     -21.035     -99.081
  C     -117.074     -22.839     -98.318
  O     -117.638     -21.869     -97.435
  C     -117.835     -23.006     -99.630
  N     -122.720     -23.094     -98.385
  C     -121.859     -22.023     -98.543
  N     -122.374     -20.791     -98.330
  N     -120.601     -22.153     -98.881
  C     -120.234     -23.443     -99.094
  C     -120.990     -24.584     -98.964
  C     -122.375     -24.429     -98.565
  O     -123.180     -25.337     -98.382
  N     -120.248     -25.707     -99.238
  C     -119.046     -25.243     -99.529
  N     -118.989     -23.877     -99.464
  O     -113.652     -26.996    -100.266
  O     -115.218     -27.934     -98.473
  H     -118.477     -22.242     -97.086
  H     -113.123     -27.716     -99.874
  H     -123.676     -22.938     -98.109
  H     -118.186     -25.847     -99.785
  H     -118.203     -22.052    -100.025
  H     -117.010     -23.793     -97.778
  H     -123.342     -20.616     -98.118
  H     -114.908     -22.695     -98.105
  H     -121.766     -19.989     -98.480
  H     -115.149     -22.550    -100.931
  H     -114.561     -24.874    -101.065
  H     -113.745     -24.231     -99.616
  P     -114.543     -20.175     -98.319
  C     -112.437     -20.674     -99.744
  O     -113.433     -19.725     -99.391
  O     -113.788     -21.272     -97.430
  O     -115.099     -19.072     -97.473
  H     -114.021     -21.153     -96.489
  H     -111.770     -20.242    -100.461
  H     -112.903     -21.539    -100.167
  H     -111.887     -20.956     -98.870

 6  7  8  9  10  11  12  13  14  15  26  29  33  34 0
 6-311+G(2d,p)
 ****
 36  38  39  40  41 0
 6-311+G(2d,p)
 ****
 1  2  3  4  5  16  17  18  19  20  21  22  23  24  25 0
 3-21G
 ****
 27  28  30  31  32  35  37  42  43  44  45  46  47 0
 3-21G
 ****
 48  49 0
 3-21G
 ****


