%nproc=1
%NoSave
%Mem=1900MB
#P OB98/GEN NMR

erre ene a

0 1
  C     -154.066      34.813     168.901
  O     -154.805      35.908     168.402
  H     -153.164      35.191     169.388
  H     -153.771      34.157     168.080
  H     -154.655      34.253     169.634
  P     -156.256      35.601     167.783
  C     -157.681      36.460     169.777
  O     -157.268      36.664     168.432
  C     -157.179      37.596     170.673
  O     -155.729      37.570     170.690
  C     -157.619      38.984     170.200
  O     -157.918      39.787     171.358
  C     -156.387      39.543     169.511
  O     -156.358      40.970     169.497
  C     -155.259      38.883     170.310
  N     -154.021      38.815     169.535
  C     -152.858      39.267     170.169
  O     -152.907      39.703     171.323
  N     -151.677      39.270     169.466
  C     -151.674      38.931     168.213
  N     -150.481      38.984     167.564
  C     -152.894      38.514     167.485
  C     -154.016      38.467     168.206
  O     -156.672      34.222     168.481
  O     -156.309      35.527     166.293
  H     -155.477      41.257     169.180
  H     -157.231      33.681     167.889
  H     -152.847      38.263     166.434
  H     -154.959      38.181     167.753
  H     -155.063      39.444     171.235
  H     -156.365      39.196     168.468
  H     -158.492      38.959     169.542
  H     -157.516      37.400     171.700
  H     -149.672      39.293     168.092
  H     -157.260      35.511     170.137
  H     -150.372      38.788     166.578
  H     -158.775      36.395     169.817
  P     -159.381      40.443     171.417
  C     -160.857      38.626     172.555
  O     -160.141      39.850     172.701
  O     -160.142      39.767     170.180
  O     -159.377      41.934     171.311
  H     -160.269      40.419     169.468
  H     -161.306      38.362     173.490
  H     -160.183      37.852     172.252
  H     -161.620      38.745     171.814

 6  7  8  9  10  11  12  13  14  15  16  26  30  31  32  33  35 0
 6-311+G(2d,p)
 ****
 37  38 0
 6-311+G(2d,p)
 ****
 1  2  3  4  5  17  18  19  20  21  22  23  24  25 0
 3-21G
 ****
 27  28  29  34  36  39  40  41  42  43  44  45  46 0
 3-21G
 ****


