%nproc=1
%NoSave
%Mem=1900MB
#P OB98/GEN NMR

erre ene a

0 1
  C     -761.124    -359.951     418.466
  O     -761.501    -360.153     419.810
  H     -762.029    -359.861     417.857
  H     -760.537    -360.806     418.107
  H     -760.532    -359.035     418.351
  P     -760.385    -359.993     420.951
  C     -761.646    -358.734     422.835
  O     -761.165    -359.987     422.361
  C     -762.723    -358.937     423.909
  O     -763.903    -359.528     423.290
  C     -762.249    -359.921     424.994
  O     -762.868    -359.673     426.258
  C     -762.738    -361.267     424.457
  O     -762.892    -362.249     425.488
  C     -764.050    -360.864     423.788
  N     -766.145    -365.321     422.456
  C     -765.765    -364.887     423.698
  N     -765.971    -365.745     424.739
  N     -765.205    -363.715     423.924
  C     -765.003    -362.996     422.783
  C     -765.322    -363.330     421.498
  C     -765.970    -364.613     421.267
  O     -766.309    -365.057     420.178
  N     -764.953    -362.342     420.615
  C     -764.401    -361.412     421.358
  N     -764.432    -361.754     422.702
  O     -759.915    -358.467     420.811
  O     -759.226    -360.935     420.868
  H     -763.352    -363.019     425.101
  H     -759.036    -358.353     421.200
  H     -766.600    -366.214     422.347
  H     -763.991    -360.483     421.006
  H     -764.869    -360.865     424.511
  H     -761.989    -361.639     423.758
  H     -766.199    -366.711     424.579
  H     -761.169    -359.921     425.121
  H     -765.416    -365.575     425.573
  H     -763.023    -357.977     424.327
  H     -762.061    -358.208     421.970
  H     -760.824    -358.140     423.223
  P     -762.088    -358.772     427.320
  C     -764.429    -358.117     428.426
  O     -763.053    -358.449     428.570
  O     -761.934    -357.366     426.590
  O     -760.776    -359.338     427.748
  H     -760.998    -357.170     426.419
  H     -764.858    -357.946     429.391
  H     -764.942    -358.924     427.946
  H     -764.522    -357.231     427.833

 6  7  8  9  10  11  12  13  14  15  26  29  33  34 0
 6-311+G(2d,p)
 ****
 36  38  39  40  41 0
 6-311+G(2d,p)
 ****
 1  2  3  4  5  16  17  18  19  20  21  22  23  24  25 0
 3-21G
 ****
 27  28  30  31  32  35  37  42  43  44  45  46  47 0
 3-21G
 ****
 48  49 0
 3-21G
 ****


