%nproc=1
%NoSave
%Mem=1900MB
#P OB98/GEN NMR

erre ene a

0 1
  C      554.887     669.175    -891.730
  O      554.487     668.171    -890.830
  H      554.147     669.980    -891.720
  H      554.935     668.762    -892.750
  H      555.865     669.581    -891.450
  P      555.453     666.901    -890.680
  C      556.541     665.479    -892.570
  O      555.355     666.095    -892.080
  C      556.552     665.587    -894.100
  O      556.698     666.966    -894.500
  C      557.715     664.843    -894.760
  O      557.498     663.436    -894.830
  C      557.762     665.518    -896.120
  O      556.824     664.953    -897.030
  C      557.385     666.984    -895.780
  N      560.793     669.521    -898.600
  C      559.705     668.792    -898.930
  N      558.829     668.144    -898.120
  C      559.179     668.343    -896.830
  C      560.247     669.063    -896.330
  C      561.101     669.668    -897.280
  N      562.217     670.372    -896.940
  N      560.288     669.003    -894.950
  C      559.247     668.268    -894.620
  N      558.536     667.846    -895.720
  O      554.665     665.951    -889.650
  O      556.837     667.198    -890.210
  H      557.205     664.094    -897.310
  H      555.040     666.051    -888.760
  H      559.515     668.699    -900.000
  H      558.948     668.010    -893.600
  H      556.691     667.401    -896.520
  H      558.763     665.433    -896.560
  H      558.653     665.068    -894.210
  H      555.573     665.210    -894.490
  H      556.555     664.421    -892.290
  H      557.412     665.986    -892.150
  H      562.816     670.737    -897.680
  H      562.522     670.401    -895.980
  P      558.747     662.512    -895.210
  C      560.663     662.840    -896.950
  O      559.284     662.996    -896.630
  O      558.083     661.089    -895.510
  O      559.811     662.428    -894.140
  H      558.684     660.377    -895.220
  H      560.845     663.216    -897.935
  H      560.923     661.803    -896.910
  H      561.256     663.384    -896.245

 6  7  8  9  10  11  12  13  14  15  25  28  32  33  34  35 0
 6-311+G(2d,p)
 ****
 36  37  40 0
 6-311+G(2d,p)
 ****
 1  2  3  4  5  16  17  18  19  20  21  22  23  24 0
 3-21G
 ****
 26  27  29  30  31  38  39 41  42  43  44  45  46  47  48 0
 3-21G
 ****


