%nproc=1
%NoSave
%Mem=1900MB
#P OB98/GEN NMR

erre ene a

0 1
  C     -260.927    -117.669     208.001
  O     -260.928    -118.176     209.322
  H     -261.706    -118.177     207.428
  H     -259.959    -117.865     207.529
  H     -261.131    -116.594     208.004
  P     -259.975    -117.447     210.380
  C     -257.383    -117.093     210.608
  O     -258.459    -117.710     209.913
  C     -256.110    -117.166     209.766
  O     -256.124    -116.189     208.710
  C     -254.841    -116.848     210.540
  O     -254.484    -117.866     211.448
  C     -253.858    -116.671     209.393
  O     -253.418    -117.938     208.886
  C     -254.738    -115.940     208.348
  N     -254.448    -114.514     208.271
  C     -253.316    -114.163     207.522
  O     -252.642    -115.034     206.971
  N     -252.964    -112.838     207.447
  C     -253.688    -111.944     208.041
  N     -253.282    -110.650     207.934
  C     -254.903    -112.267     208.816
  C     -255.217    -113.558     208.893
  O     -260.114    -118.375     211.674
  O     -260.274    -116.002     210.618
  H     -253.010    -118.408     209.642
  H     -259.932    -119.313     211.501
  H     -255.480    -111.484     209.287
  H     -256.090    -113.882     209.445
  H     -254.590    -116.373     207.350
  H     -252.964    -116.123     209.698
  H     -254.943    -115.882     211.050
  H     -256.062    -118.165     209.312
  H     -252.431    -110.467     207.411
  H     -257.230    -117.559     211.584
  H     -253.745    -109.872     208.380
  H     -257.660    -116.047     210.781
  P     -253.629    -117.523     212.761
  C     -251.413    -116.278     213.181
  O     -252.200    -117.007     212.241
  O     -253.563    -118.609     213.778
  O     -254.304    -116.171     213.296
  H     -254.277    -115.427     212.668
  H     -250.490    -115.988     212.724
  H     -251.212    -116.895     214.032
  H     -251.947    -115.404     213.492

 6  7  8  9  10  11  12  13  14  15  16  26  30  31  32  33  35 0
 6-311+G(2d,p)
 ****
 37  38 0
 6-311+G(2d,p)
 ****
 1  2  3  4  5  17  18  19  20  21  22  23  24  25 0
 3-21G
 ****
 27  28  29  34  36  39  40  41  42  43  44  45  46 0
 3-21G
 ****


