%nproc=1
%NoSave
%Mem=1900MB
#P OB98/GEN NMR

erre ene a

0 1
  C      966.908    -895.130    -583.666
  O      967.902    -894.230    -583.162
  P      967.454    -893.270    -581.951
  C      968.987    -894.410    -580.187
  O      967.657    -894.070    -580.566
  C      969.105    -894.630    -578.666
  O      969.097    -893.350    -578.000
  C      967.970    -895.460    -578.061
  O      968.520    -896.300    -577.030
  C      967.086    -894.430    -577.394
  O      966.282    -894.990    -576.353
  C      968.144    -893.430    -576.921
  N      965.396    -890.700    -573.663
  C      965.858    -892.000    -573.560
  N      965.510    -892.660    -572.433
  N      966.584    -892.580    -574.471
  C      966.881    -891.780    -575.520
  C      966.498    -890.470    -575.746
  C      965.659    -889.860    -574.743
  O      965.180    -888.720    -574.793
  N      966.995    -889.990    -576.926
  C      967.675    -891.010    -577.443
  N      967.629    -892.120    -576.620
  O      965.860    -893.200    -582.118
  O      968.067    -891.920    -581.990
  H      965.659    -894.310    -576.066
  H      965.577    -892.270    -582.203
  H      964.824    -890.300    -572.942
  H      968.189    -891.010    -578.379
  H      968.670    -893.800    -576.029
  H      966.414    -893.990    -578.137
  H      965.010    -892.250    -571.671
  H      967.421    -896.080    -578.780
  H      965.868    -893.610    -572.328
  H      970.070    -895.100    -578.472
  H      969.661    -893.600    -580.475
  H      969.289    -895.310    -580.730
  P      968.026    -897.820    -576.986
  C      970.265    -898.940    -577.710
  O      968.927    -898.600    -578.060
  O      966.586    -897.760    -577.686
  O      967.972    -898.420    -575.624
  H      966.023    -898.490    -577.370
  H      970.470    -898.790    -576.657
  H      970.958    -898.320    -578.293
  H      970.440    -900.000    -577.964
  H      967.324    -895.711    -584.463
  H      966.072    -894.570    -584.031
  H      966.586    -895.781    -582.881

 3  4  5  6  7  8  9  10  11  12  23  26  30  31  33  0
 6-311+G(2d,p)
 ****
 35  36  37  38 0
 6-311+G(2d,p)
 ****
 1  2  13  14  15  16  17  18  19  20  21  22  24  25  27  28  29 0
 3-21G
 ****
 32  34  39  40  41  42  43  44  45  46  47  48  49 0
 3-21G
 ****


