%nproc=1
%NoSave
%Mem=1900MB
#P OB98/GEN NMR

erre ene a

0 1
  C     -344.017     415.292    -145.963
  O     -343.123     415.567    -144.908
  H     -344.437     414.291    -145.811
  H     -343.485     415.308    -146.917
  H     -344.838     416.013    -145.985
  P     -342.615     417.071    -144.700
  C     -340.490     417.094    -146.168
  O     -341.847     417.501    -146.039
  C     -339.916     417.529    -147.518
  O     -340.447     416.667    -148.558
  C     -340.333     418.967    -147.873
  O     -339.381     419.610    -148.711
  C     -341.623     418.752    -148.653
  O     -341.938     419.846    -149.516
  C     -341.316     417.448    -149.393
  N     -345.656     417.252    -152.070
  C     -344.795     418.316    -151.868
  N     -345.145     419.488    -152.466
  N     -343.719     418.255    -151.134
  C     -343.535     417.046    -150.544
  C     -344.320     415.923    -150.648
  C     -345.497     415.993    -151.492
  O     -346.299     415.091    -151.685
  N     -343.818     414.892    -149.898
  C     -342.739     415.385    -149.335
  N     -342.505     416.686    -149.717
  O     -341.418     416.922    -143.645
  O     -343.655     418.045    -144.217
  H     -341.376     419.764    -150.309
  H     -341.264     417.769    -143.186
  H     -346.453     417.348    -152.670
  H     -342.080     414.849    -148.658
  H     -340.787     417.657    -150.332
  H     -342.444     418.659    -147.941
  H     -346.055     419.626    -152.870
  H     -340.505     419.582    -146.993
  H     -344.717     420.336    -152.080
  H     -338.828     417.396    -147.521
  H     -340.476     416.003    -146.074
  H     -339.895     417.496    -145.346
  P     -338.129     420.346    -148.030
  C     -339.179     422.776    -147.853
  O     -338.632     421.632    -147.227
  O     -337.327     420.956    -149.269
  O     -337.275     419.449    -147.193
  H     -336.446     420.541    -149.343
  H     -339.440     423.499    -147.109
  H     -340.054     422.498    -148.403
  H     -338.457     423.197    -148.521

 6  7  8  9  10  11  12  13  14  15  26  29  33  34 0
 6-311+G(2d,p)
 ****
 36  38  39  40  41 0
 6-311+G(2d,p)
 ****
 1  2  3  4  5  16  17  18  19  20  21  22  23  24  25 0
 3-21G
 ****
 27  28  30  31  32  35  37  42  43  44  45  46  47 0
 3-21G
 ****
 48  49 0
 3-21G
 ****


