%nproc=1
%NoSave
%Mem=1900MB
#P OB98/GEN NMR

erre ene a

0 1
  C       80.530      57.478     -31.182
  O       81.430      58.549     -31.003
  H       80.885      56.623     -30.601
  H       80.500      57.197     -32.239
  H       79.524      57.740     -30.844
  P       80.945      60.030     -31.364
  C       81.084      59.643     -33.911
  O       81.548      60.405     -32.804
  C       81.001      60.481     -35.187
  O       80.558      59.664     -36.292
  C       79.988      61.620     -35.069
  O       80.471      62.800     -34.454
  C       79.632      61.871     -36.531
  O       80.575      62.767     -37.142
  C       79.738      60.476     -37.151
  N       75.603      59.969     -40.106
  C       76.686      60.811     -40.265
  N       76.630      61.666     -41.310
  N       77.713      60.822     -39.458
  C       77.586      59.981     -38.404
  C       76.555      59.110     -38.135
  C       75.445      59.067     -39.065
  O       74.458      58.345     -38.967
  N       76.777      58.412     -36.972
  C       77.901      58.914     -36.503
  N       78.443      59.851     -37.350
  O       81.806      60.958     -30.378
  O       79.478      60.283     -31.197
  H       80.567      63.605     -36.646
  H       81.330      61.791     -30.207
  H       74.852      59.984     -40.774
  H       78.376      58.618     -35.574
  H       80.234      60.508     -38.129
  H       78.645      62.333     -36.633
  H       75.811      61.774     -41.887
  H       79.087      61.276     -34.550
  H       77.264      62.467     -41.305
  H       82.001      60.853     -35.439
  H       80.093      59.272     -33.643
  H       81.726      58.771     -34.066
  P       79.967      63.204     -32.990
  C       77.920      64.613     -33.761
  O       79.182      64.594     -33.132
  O       81.325      63.607     -32.246
  O       79.232      62.134     -32.260
  H       81.661      62.853     -31.727
  H       77.541      65.614     -33.770
  H       77.244      63.980     -33.224
  H       78.017      64.259     -34.766

 6  7  8  9  10  11  12  13  14  15  26  29  33  34 0
 6-311+G(2d,p)
 ****
 36  38  39  40  41 0
 6-311+G(2d,p)
 ****
 1  2  3  4  5  16  17  18  19  20  21  22  23  24  25 0
 3-21G
 ****
 27  28  30  31  32  35  37  42  43  44  45  46  47 0
 3-21G
 ****
 48  49 0
 3-21G
 ****


