%nproc=1
%NoSave
%Mem=1900MB
#P OB98/GEN NMR

erre ene a

0 1
  C      253.030    -125.215     384.751
  O      253.053    -125.631     386.102
  H      253.679    -125.877     384.169
  H      253.400    -124.191     384.661
  H      252.013    -125.278     384.354
  P      252.239    -124.715     387.142
  C      254.429    -123.441     387.765
  O      253.118    -123.371     387.226
  C      254.489    -122.665     389.076
  O      255.817    -122.705     389.635
  C      254.151    -121.182     388.940
  O      252.756    -120.939     388.848
  C      254.734    -120.649     390.234
  O      253.864    -120.983     391.330
  C      256.060    -121.442     390.313
  N      257.189    -120.737     389.706
  C      257.947    -119.921     390.556
  O      257.652    -119.804     391.743
  N      259.006    -119.220     390.026
  C      259.291    -119.332     388.766
  N      260.343    -118.606     388.292
  C      258.533    -120.195     387.843
  C      257.507    -120.860     388.372
  O      252.524    -125.406     388.557
  O      250.794    -124.505     386.839
  H      254.323    -120.713     392.148
  H      252.166    -124.840     389.283
  H      258.800    -120.250     386.798
  H      256.901    -121.511     387.753
  H      256.311    -121.676     391.356
  H      254.852    -119.563     390.235
  H      254.684    -120.723     388.098
  H      253.817    -123.160     389.793
  H      260.805    -117.977     388.936
  H      255.125    -123.008     387.038
  H      260.524    -118.492     387.305
  H      254.706    -124.484     387.949
  P      252.275    -119.651     388.018
  C      251.727    -118.362     390.205
  O      252.451    -118.380     388.984
  O      250.690    -119.840     387.944
  O      252.891    -119.513     386.659
  H      250.342    -119.565     387.074
  H      251.945    -117.459     390.736
  H      252.012    -119.204     390.801
  H      250.678    -118.409     389.998

 6  7  8  9  10  11  12  13  14  15  16  26  30  31  32  33  35 0
 6-311+G(2d,p)
 ****
 37  38 0
 6-311+G(2d,p)
 ****
 1  2  3  4  5  17  18  19  20  21  22  23  24  25 0
 3-21G
 ****
 27  28  29  34  36  39  40  41  42  43  44  45  46 0
 3-21G
 ****


