%nproc=1
%NoSave
%Mem=1900MB
#P OB98/GEN NMR

erre ene a

0 1
  C     -638.603    2793.033    -186.108
  O     -637.565    2793.764    -186.700
  H     -639.443    2793.724    -185.901
  H     -638.282    2792.597    -185.173
  H     -638.972    2792.253    -186.796
  P     -636.273    2792.980    -187.231
  C     -635.957    2794.394    -189.402
  O     -636.270    2793.104    -188.848
  C     -635.853    2794.292    -190.937
  O     -634.802    2793.374    -191.283
  C     -637.169    2793.809    -191.593
  O     -637.358    2794.501    -192.797
  C     -636.884    2792.340    -191.878
  O     -637.632    2791.845    -192.964
  C     -635.369    2792.361    -192.148
  N     -634.945    2787.606    -193.816
  C     -635.572    2788.701    -194.381
  N     -636.218    2788.469    -195.542
  N     -635.592    2789.878    -193.846
  C     -634.909    2789.937    -192.669
  C     -634.244    2788.952    -192.013
  C     -634.232    2787.640    -192.604
  O     -633.689    2786.635    -192.135
  N     -633.649    2789.432    -190.852
  C     -634.000    2790.704    -190.810
  N     -634.747    2791.064    -191.880
  O     -636.114    2791.593    -186.725
  O     -635.040    2793.905    -186.816
  H     -637.442    2790.869    -193.036
  H     -634.547    2793.513    -186.052
  H     -634.959    2786.738    -194.249
  H     -633.725    2791.391    -190.021
  H     -635.139    2792.618    -193.179
  H     -637.079    2791.720    -190.987
  H     -636.220    2787.597    -196.035
  H     -638.031    2793.926    -190.932
  H     -636.672    2789.257    -196.001
  H     -635.596    2795.288    -191.304
  H     -634.984    2794.666    -188.983
  H     -636.701    2795.102    -189.092
  P     -638.862    2794.990    -193.202
  C     -638.257    2797.481    -192.879
  O     -639.123    2796.409    -192.510
  O     -639.916    2793.943    -192.987
  O     -638.707    2795.348    -194.764
  H     -639.545    2795.153    -195.189
  H     -638.539    2798.366    -192.348
  H     -638.335    2797.657    -193.932
  H     -637.247    2797.224    -192.634

 6  7  8  9  10  11  12  13  14  15  26  29  33  34 0
 6-311+G(2d,p)
 ****
 36  38  39  40  41 0
 6-311+G(2d,p)
 ****
 1  2  3  4  5  16  17  18  19  20  21  22  23  24  25 0
 3-21G
 ****
 27  28  30  31  32  35  37  42  43  44  45  46  47 0
 3-21G
 ****
 48  49 0
 3-21G
 ****


