%nproc=1
%NoSave
%Mem=1900MB
#P OB98/GEN NMR

erre ene a

0 1
  C     2326.492    -891.713     718.114
  O     2327.679    -892.404     717.823
  H     2325.891    -891.648     717.194
  H     2326.706    -890.702     718.448
  H     2325.909    -892.247     718.857
  P     2328.762    -892.612     718.979
  C     2328.639    -895.184     719.031
  O     2328.343    -893.970     719.725
  C     2327.383    -895.870     718.532
  O     2326.762    -895.066     717.499
  C     2327.631    -897.270     717.936
  O     2326.667    -898.191     718.477
  C     2327.386    -897.069     716.449
  O     2327.014    -898.277     715.794
  C     2326.308    -895.972     716.477
  N     2326.171    -895.325     715.174
  C     2324.850    -895.172     714.720
  O     2323.895    -895.572     715.401
  N     2324.641    -894.614     713.484
  C     2325.664    -894.302     712.762
  N     2325.392    -893.765     711.528
  C     2327.051    -894.463     713.192
  C     2327.243    -894.972     714.399
  O     2328.954    -891.430     719.885
  O     2330.118    -893.032     718.222
  H     2326.070    -898.488     716.017
  H     2330.886    -892.842     718.810
  H     2327.886    -894.176     712.537
  H     2328.243    -895.124     714.811
  H     2325.325    -896.373     716.795
  H     2328.298    -896.691     715.975
  H     2328.635    -897.649     718.138
  H     2326.665    -895.912     719.363
  H     2324.405    -893.682     711.271
  H     2329.216    -895.835     719.703
  H     2326.089    -893.508     710.857
  H     2329.279    -894.914     718.175
  P     2327.131    -898.994     719.788
  C     2325.174    -898.453     721.415
  O     2326.533    -898.225     721.056
  O     2328.705    -898.725     719.856
  O     2326.803    -900.462     719.717
  H     2329.177    -899.573     719.647
  H     2324.930    -897.869     722.278
  H     2325.033    -899.490     721.635
  H     2324.538    -898.171     720.602

 6  7  8  9  10  11  12  13  14  15  16  26  30  31  32  33  35 0
 6-311+G(2d,p)
 ****
 37  38 0
 6-311+G(2d,p)
 ****
 1  2  3  4  5  17  18  19  20  21  22  23  24  25 0
 3-21G
 ****
 27  28  29  34  36  39  40  41  42  43  44  45  46 0
 3-21G
 ****


