%nproc=1
%NoSave
%Mem=1900MB
#P OB98/GEN NMR

erre ene a

0 1
  C     -384.857     431.446     272.613
  O     -385.381     430.124     272.436
  P     -385.825     429.293     273.726
  C     -384.832     428.591     276.010
  O     -384.613     429.292     274.792
  C     -383.633     428.752     276.958
  O     -382.385     428.364     276.295
  C     -383.446     430.209     277.427
  O     -382.928     430.241     278.766
  C     -382.368     430.733     276.492
  O     -381.716     431.878     277.040
  C     -381.489     429.493     276.350
  N     -377.024     431.118     274.418
  C     -377.537     431.172     275.677
  N     -378.726     430.701     276.119
  C     -379.397     430.101     275.117
  C     -379.010     429.956     273.799
  C     -377.751     430.508     273.452
  N     -377.240     430.478     272.166
  N     -379.963     429.290     273.064
  C     -380.955     429.077     273.919
  N     -380.640     429.522     275.180
  O     -386.425     427.947     273.457
  O     -386.904     430.257     274.428
  H     -381.463     431.654     277.965
  H     -387.652     429.725     274.750
  H     -376.911     431.682     276.407
  H     -381.901     428.630     273.671
  H     -380.842     429.348     277.225
  H     -382.816     431.015     275.542
  H     -384.357     430.814     277.388
  H     -383.755     428.082     277.812
  H     -384.986     427.523     275.792
  H     -376.400     430.996     271.993
  H     -377.839     430.156     271.409
  H     -385.763     428.942     276.469
  P     -383.869     430.947     279.873
  C     -384.747     433.389     280.200
  O     -384.058     432.460     279.395
  O     -383.397     430.739     281.278
  O     -385.291     430.265     279.570
  H     -385.568     430.279     278.635
  H     -384.649     434.385     279.756
  H     -384.326     433.408     281.206
  H     -385.807     433.128     280.242
  H     -384.609     431.862     271.659
  H     -383.978     431.403     273.222
  H     -385.592     432.060     273.090

 3  4  5  6  7  8  9  10  11  12  22  25  29  30  31  32 0
 6-311+G(2d,p)
 ****
 33  36  37 0
 6-311+G(2d,p)
 ****
 1  2  13  14  15  16  17  18  19  20  21  23  24  26 0
 3-21G
 ****
 27  28  34  35  38  39  40  41  42  43  44  45  46  47  48 0
 3-21G
 ****


