%nproc=1
%NoSave
%Mem=1900MB
#P OB98/GEN NMR

erre ene a

0 1
  C      145.323    -354.960      11.326
  O      145.074    -355.362      12.660
  H      145.644    -355.833      10.752
  H      146.119    -354.214      11.306
  H      144.415    -354.554      10.876
  P      144.503    -354.244      13.659
  C      143.258    -354.420      15.927
  O      144.232    -354.985      15.060
  C      143.168    -355.219      17.228
  O      142.517    -356.497      16.954
  C      144.526    -355.526      17.877
  O      144.353    -355.495      19.301
  C      144.781    -356.967      17.463
  O      145.709    -357.627      18.320
  C      143.358    -357.518      17.520
  N      145.113    -362.229      17.266
  C      145.406    -361.208      18.147
  N      146.310    -361.482      19.115
  N      144.865    -360.022      18.088
  C      143.954    -359.898      17.092
  C      143.576    -360.826      16.151
  C      144.208    -362.129      16.211
  O      144.002    -363.065      15.446
  N      142.643    -360.304      15.290
  C      142.458    -359.067      15.710
  N      143.230    -358.773      16.798
  O      143.033    -353.978      13.082
  O      145.306    -352.988      13.743
  H      145.743    -358.572      18.055
  H      143.046    -353.226      12.460
  H      145.568    -363.120      17.346
  H      141.784    -358.348      15.263
  H      143.025    -357.707      18.548
  H      145.175    -357.001      16.439
  H      146.733    -362.386      19.252
  H      145.331    -354.843      17.585
  H      146.509    -360.759      19.797
  H      142.514    -354.676      17.924
  H      142.284    -354.440      15.427
  H      143.526    -353.381      16.144
  P      145.278    -354.495      20.149
  C      144.831    -352.845      22.109
  O      144.460    -354.048      21.451
  O      145.277    -353.166      19.256
  O      146.663    -354.998      20.394
  H      146.101    -352.665      19.408
  H      144.193    -352.689      22.954
  H      144.733    -352.023      21.431
  H      145.847    -352.917      22.438

 6  7  8  9  10  11  12  13  14  15  26  29  33  34 0
 6-311+G(2d,p)
 ****
 36  38  39  40  41 0
 6-311+G(2d,p)
 ****
 1  2  3  4  5  16  17  18  19  20  21  22  23  24  25 0
 3-21G
 ****
 27  28  30  31  32  35  37  42  43  44  45  46  47 0
 3-21G
 ****
 48  49 0
 3-21G
 ****


