%nproc=1
%NoSave
%Mem=1900MB
#P OB98/GEN NMR

erre ene a

0 1
  C      -78.263    -760.961     260.732
  O      -77.909    -759.869     261.564
  P      -78.656    -759.760     262.981
  C      -78.113    -758.513     265.207
  O      -77.619    -759.081     264.002
  C      -76.969    -757.876     266.006
  O      -76.145    -758.915     266.585
  C      -76.025    -757.015     265.181
  O      -76.609    -755.751     264.889
  C      -74.827    -756.953     266.128
  O      -75.055    -755.990     267.165
  C      -74.809    -758.379     266.714
  N      -69.867    -759.646     266.082
  C      -70.463    -758.690     266.820
  N      -71.793    -758.402     266.925
  C      -72.503    -759.220     266.147
  C      -72.039    -760.228     265.317
  C      -70.651    -760.451     265.298
  N      -70.049    -761.419     264.548
  N      -73.075    -760.871     264.667
  C      -74.164    -760.255     265.097
  N      -73.881    -759.275     266.017
  O      -78.711    -761.277     263.483
  O      -80.024    -759.134     262.934
  H      -74.330    -756.082     267.816
  H      -79.525    -761.459     263.997
  H      -69.805    -758.061     267.417
  H      -75.176    -760.484     264.778
  H      -74.532    -758.389     267.774
  H      -73.891    -756.667     265.616
  H      -75.753    -757.524     264.250
  H      -77.409    -757.298     266.824
  H      -78.584    -759.286     265.816
  H      -69.032    -761.398     264.464
  H      -70.604    -761.906     263.856
  H      -78.876    -757.756     264.963
  P      -75.939    -754.896     263.714
  C      -76.753    -752.794     262.429
  O      -77.133    -753.907     263.226
  O      -75.863    -755.965     262.513
  O      -74.663    -754.220     264.071
  H      -76.706    -756.444     262.400
  H      -77.647    -752.265     262.136
  H      -76.218    -753.133     261.537
  H      -76.105    -752.117     263.018
  H      -77.697    -760.917     259.825
  H      -79.307    -760.911     260.503
  H      -78.052    -761.879     261.239

 3  4  5  6  7  8  9  10  11  12  22  25  29  30  31  32 0
 6-311+G(2d,p)
 ****
 33  36  37 0
 6-311+G(2d,p)
 ****
 1  2  13  14  15  16  17  18  19  20  21  23  24  26 0
 3-21G
 ****
 27  28  34  35  38  39  40  41  42  43  44  45  46  47  48 0
 3-21G
 ****


