%nproc=1
%NoSave
%Mem=1900MB
#P OB98/GEN NMR

erre ene a

0 1
  C     -359.680    -245.406    -600.780
  O     -358.712    -245.347    -601.810
  H     -359.966    -246.449    -600.630
  H     -360.569    -244.834    -601.062
  H     -359.259    -245.013    -599.852
  P     -358.184    -243.887    -602.217
  C     -358.763    -244.218    -604.707
  O     -357.721    -244.046    -603.749
  C     -358.528    -245.496    -605.523
  O     -358.839    -246.639    -604.693
  C     -359.394    -245.579    -606.781
  O     -358.637    -246.168    -607.837
  C     -360.516    -246.518    -606.373
  O     -361.099    -247.187    -607.494
  C     -359.805    -247.450    -605.390
  N     -362.158    -251.782    -604.092
  C     -361.187    -251.517    -604.989
  N     -360.600    -250.329    -605.263
  C     -361.088    -249.364    -604.450
  C     -362.078    -249.486    -603.500
  C     -362.637    -250.770    -603.327
  N     -363.641    -251.046    -602.431
  N     -362.334    -248.260    -602.910
  C     -361.498    -247.421    -603.494
  N     -360.740    -248.039    -604.450
  O     -357.168    -243.290    -601.303
  O     -359.552    -243.071    -602.352
  H     -361.453    -246.508    -608.101
  H     -360.228    -243.589    -602.831
  H     -360.838    -252.364    -605.573
  H     -361.416    -246.360    -603.271
  H     -359.276    -248.269    -605.888
  H     -361.307    -245.953    -605.870
  H     -359.775    -244.608    -607.092
  H     -357.459    -245.565    -605.770
  H     -358.803    -243.358    -605.384
  H     -363.971    -251.994    -602.368
  H     -363.997    -250.304    -601.843
  H     -359.709    -244.283    -604.169
  P     -358.445    -245.334    -609.193
  C     -359.222    -247.202    -610.800
  O     -358.144    -246.369    -610.394
  O     -357.530    -244.161    -609.114
  O     -359.947    -244.866    -609.526
  H     -359.917    -243.963    -609.900
  H     -358.900    -247.839    -611.597
  H     -360.036    -246.594    -611.136
  H     -359.542    -247.800    -609.972

 6  7  8  9  10  11  12  13  14  15  25  28  32  33  34  35 0
 6-311+G(2d,p)
 ****
 36  39  40 0
 6-311+G(2d,p)
 ****
 1  2  3  4  5  16  17  18  19  20  21  22  23  24 0
 3-21G
 ****
 26  27  29  30  31  37  38  41  42  43  44  45  46  47 0
 3-21G
 ****
 48 0
 3-21G
 ****


