%nproc=1
%NoSave
%Mem=1900MB
#P OB98/GEN NMR

erre ene a

0 1
  C     -345.961    -277.202     -59.687
  O     -347.302    -277.422     -59.301
  H     -345.504    -276.520     -58.970
  H     -345.931    -276.749     -60.678
  H     -345.398    -278.140     -59.694
  P     -348.115    -278.623     -59.976
  C     -350.341    -277.426     -60.532
  O     -349.672    -278.358     -59.691
  C     -350.913    -276.263     -59.715
  O     -351.709    -276.805     -58.622
  C     -349.801    -275.423     -59.083
  O     -350.209    -274.065     -58.878
  C     -349.610    -276.080     -57.732
  O     -349.018    -275.212     -56.758
  C     -351.037    -276.506     -57.392
  N     -349.998    -278.393     -52.763
  C     -349.596    -277.203     -53.332
  N     -348.800    -276.409     -52.563
  N     -349.902    -276.835     -54.545
  C     -350.632    -277.761     -55.222
  C     -351.083    -278.983     -54.775
  C     -350.756    -279.358     -53.415
  O     -351.076    -280.414     -52.868
  N     -351.784    -279.646     -55.750
  C     -351.758    -278.831     -56.784
  N     -351.095    -277.666     -56.507
  O     -347.798    -279.873     -59.027
  O     -347.770    -278.915     -61.406
  H     -348.519    -275.769     -56.128
  H     -347.937    -280.712     -59.510
  H     -349.755    -278.615     -51.810
  H     -352.221    -279.027     -57.745
  H     -351.579    -275.689     -56.898
  H     -348.927    -276.923     -57.852
  H     -348.385    -276.747     -51.710
  H     -348.880    -275.430     -59.661
  H     -348.248    -275.707     -53.063
  H     -351.595    -275.665     -60.335
  H     -351.138    -277.977     -61.047
  H     -349.652    -277.052     -61.306
  P     -349.447    -272.911     -59.693
  C     -350.045    -271.017     -57.940
  O     -350.025    -271.479     -59.276
  O     -349.961    -273.101     -61.194
  O     -347.948    -272.968     -59.597
  H     -349.214    -273.355     -61.781
  H     -350.475    -270.038     -57.908
  H     -349.045    -270.980     -57.560
  H     -350.630    -271.683     -57.341

 6  7  8  9  10  11  12  13  14  15  26  29  33  34 0
 6-311+G(2d,p)
 ****
 36  38  39  40  41 0
 6-311+G(2d,p)
 ****
 1  2  3  4  5  16  17  18  19  20  21  22  23  24  25 0
 3-21G
 ****
 27  28  30  31  32  35  37  42  43  44  45  46  47 0
 3-21G
 ****
 48  49 0
 3-21G
 ****


