%nproc=1
%NoSave
%Mem=1900MB
#P OB98/GEN NMR

erre ene a

0 1
  C       75.820    -107.167     132.418
  O       76.176    -107.415     131.074
  H       74.731    -107.216     132.506
  H       76.148    -106.167     132.714
  H       76.258    -107.916     133.083
  P       77.726    -107.582     130.702
  C       79.045    -108.553     128.704
  O       77.791    -108.462     129.365
  C       78.941    -109.453     127.464
  O       78.543    -110.794     127.897
  C       77.899    -108.982     126.424
  O       78.373    -109.408     125.135
  C       76.681    -109.778     126.857
  O       75.647    -109.742     125.910
  C       77.350    -111.128     127.141
  N       76.538    -112.090     127.877
  C       75.588    -112.809     127.156
  O       75.387    -112.702     125.947
  N       74.837    -113.696     127.889
  C       74.954    -113.934     129.231
  O       74.271    -114.764     129.825
  C       75.968    -113.138     129.931
  C       76.700    -112.269     129.233
  O       78.613    -108.050     131.808
  O       78.149    -106.123     130.185
  H       78.638    -105.657     130.891
  H       74.808    -110.020     126.338
  H       74.148    -114.231     127.387
  H       76.079    -113.291     131.001
  H       77.467    -111.673     129.726
  H       77.685    -111.582     126.203
  H       76.265    -109.349     127.775
  H       77.756    -107.896     126.419
  H       79.939    -109.546     127.011
  H       79.770    -108.980     129.408
  H       79.372    -107.554     128.413
  P       78.931    -108.399     124.021
  C       81.360    -107.938     123.256
  O       80.374    -108.922     123.551
  O       78.921    -106.962     124.438
  O       78.005    -108.630     122.734
  H       77.987    -107.822     122.196
  H       82.267    -108.420     122.958
  H       81.542    -107.343     124.127
  H       81.012    -107.311     122.462

 6  7  8  9  10  11  12  13  14  15  16  27  31  32  33  34  35 0
 6-311+G(2d,p)
 ****
 36  37 0
 6-311+G(2d,p)
 ****
 1  2  3  4  5  17  18  19  20  21  22  23  24  25 0
 3-21G
 ****
 26  28  29  30  38  39  40  41  42  43  44  45 0
 3-21G
 ****


