%nproc=1
%NoSave
%Mem=1900MB
#P OB98/GEN NMR

erre ene a

0 1
  C       30.490      26.191     -29.749
  O       30.756      24.816     -29.936
  H       29.580      26.322     -29.160
  H       31.327      26.643     -29.211
  H       30.382      26.690     -30.716
  P       29.625      23.955     -30.679
  C       29.493      21.738     -29.341
  O       30.010      22.406     -30.483
  C       30.631      21.378     -28.389
  O       31.099      22.594     -27.756
  C       30.248      20.379     -27.282
  O       31.088      19.222     -27.347
  C       30.547      21.119     -25.987
  O       31.141      20.288     -24.990
  C       31.489      22.234     -26.425
  N       32.750      23.964     -21.800
  C       33.273      22.974     -22.557
  N       32.962      22.632     -23.823
  C       32.018      23.454     -24.318
  C       31.409      24.519     -23.677
  C       31.797      24.755     -22.347
  N       31.225      25.727     -21.558
  N       30.481      25.122     -24.505
  C       30.500      24.406     -25.610
  N       31.399      23.376     -25.537
  O       29.920      24.222     -32.230
  O       28.221      24.307     -30.316
  H       31.982      19.963     -25.362
  H       29.087      24.449     -32.688
  H       34.038      22.370     -22.078
  H       29.857      24.558     -26.470
  H       32.534      21.903     -26.455
  H       29.611      21.525     -25.585
  H       29.196      20.078     -27.329
  H       31.464      20.981     -28.984
  H       28.986      20.818     -29.653
  H       31.480      25.749     -20.584
  H       30.439      26.247     -21.924
  H       28.763      22.389     -28.848
  P       30.371      17.798     -27.126
  C       30.639      17.430     -24.563
  O       31.083      17.094     -25.872
  O       30.890      16.939     -28.374
  O       28.882      17.871     -27.076
  H       30.241      16.244     -28.594
  H       31.208      16.881     -23.842
  H       29.603      17.182     -24.463
  H       30.772      18.479     -24.399

 6  7  8  9  10  11  12  13  14  15  25  28  32  33  34  35 0
 6-311+G(2d,p)
 ****
 36  39  40 0
 6-311+G(2d,p)
 ****
 1  2  3  4  5  16  17  18  19  20  21  22  23  24 0
 3-21G
 ****
 26  27  29  30  31  37  38  41  42  43  44  45  46  47  48 0
 3-21G
 ****


