%nproc=1
%NoSave
%Mem=1900MB
#P OB98/GEN NMR

erre ene a

0 1
  C       34.913     -88.276     -47.772
  O       33.871     -88.558     -46.860
  H       34.756     -88.867     -48.677
  H       35.877     -88.552     -47.338
  H       34.918     -87.217     -48.043
  P       33.748     -87.673     -45.529
  C       31.367     -86.860     -46.090
  O       32.718     -86.489     -45.853
  C       30.620     -86.982     -44.765
  O       30.759     -85.765     -44.001
  C       29.120     -87.208     -44.915
  O       28.844     -88.544     -45.288
  C       28.635     -86.815     -43.526
  O       28.836     -87.887     -42.593
  C       29.562     -85.619     -43.204
  N       28.932     -84.321     -43.440
  C       28.086     -83.853     -42.441
  O       27.832     -84.492     -41.421
  N       27.521     -82.624     -42.663
  C       27.654     -81.877     -43.798
  O       27.083     -80.803     -43.969
  C       28.532     -82.437     -44.834
  C       29.121     -83.613     -44.611
  O       35.038     -87.233     -44.920
  O       32.915     -88.609     -44.532
  H       28.406     -87.614     -41.759
  H       33.522     -89.040     -43.901
  H       26.895     -82.274     -41.956
  H       28.656     -81.875     -45.750
  H       29.768     -84.045     -45.367
  H       29.878     -85.658     -42.154
  H       27.572     -86.574     -43.506
  H       28.701     -86.505     -45.644
  H       31.079     -87.797     -44.188
  H       31.352     -87.826     -46.607
  H       30.899     -86.106     -46.730
  P       27.455     -88.931     -45.979
  C       28.434     -89.149     -48.336
  O       27.521     -88.440     -47.507
  O       26.233     -88.497     -45.239
  O       27.516     -90.524     -46.108
  H       26.924     -90.933     -45.446
  H       28.402     -88.747     -49.327
  H       28.163     -90.184     -48.362
  H       29.424     -89.049     -47.943

 6  7  8  9  10  11  12  13  14  15  16  26  31  32  33  34  35 0
 6-311+G(2d,p)
 ****
 36  37 0
 6-311+G(2d,p)
 ****
 1  2  3  4  5  17  18  19  20  21  22  23  24  25 0
 3-21G
 ****
 27  28  29  30  38  39  40  41  42  43  44  45 0
 3-21G
 ****


