%nproc=1
%NoSave
%Mem=1900MB
#P OB98/GEN NMR

erre ene a

0 1
  C       15.232     662.939     377.262
  O       15.502     663.307     375.921
  H       14.764     663.791     377.769
  H       16.159     662.690     377.786
  H       14.544     662.091     377.294
  P       16.200     662.224     374.967
  C       14.738     663.056     373.005
  O       15.152     661.940     373.786
  C       13.228     663.247     373.121
  O       12.858     663.481     374.494
  C       12.692     664.428     372.316
  O       12.535     664.068     370.949
  C       11.371     664.667     373.030
  O       10.409     663.675     372.622
  C       11.769     664.448     374.502
  N       10.445     669.057     376.157
  C        9.717     668.129     375.429
  N        8.476     668.507     375.054
  N       10.177     666.958     375.079
  C       11.455     666.745     375.469
  C       12.281     667.588     376.178
  C       11.747     668.865     376.601
  O       12.349     669.707     377.264
  N       13.541     667.058     376.326
  C       13.463     665.879     375.740
  N       12.222     665.647     375.191
  O       16.708     660.981     375.636
  O       17.368     663.040     374.240
  H       10.267     663.801     371.665
  H       18.208     662.964     374.728
  H       10.040     669.953     376.377
  H       14.267     665.157     375.687
  H       10.948     664.021     375.094
  H       10.934     665.648     372.814
  H        8.193     669.480     375.042
  H       13.316     665.319     372.435
  H        7.948     667.866     374.476
  H       12.748     662.311     372.810
  H       15.022     662.857     371.966
  H       15.254     663.965     373.340
  P       13.345     664.837     369.789
  C       13.271     662.812     368.184
  O       14.088     663.676     368.970
  O       14.243     665.926     370.274
  O       12.218     665.321     368.772
  H       11.845     666.213     368.988
  H       13.887     662.088     367.693
  H       12.744     663.388     367.452
  H       12.568     662.312     368.817

 6  7  8  9  10  11  12  13  14  15  26  29  33  34 0
 6-311+G(2d,p)
 ****
 36  38  39  40  41 0
 6-311+G(2d,p)
 ****
 1  2  3  4  5  16  17  18  19  20  21  22  23  24  25 0
 3-21G
 ****
 27  28  30  31  32  35  37  42  43  44  45  46  47 0
 3-21G
 ****
 48  49 0
 3-21G
 ****


