%nproc=1
%NoSave
%Mem=1900MB
#P OB98/GEN NMR

erre ene a

0 1
  C      587.410      64.675     218.042
  O      586.644      65.085     216.923
  P      587.407      65.325     215.533
  C      585.631      67.094     214.841
  O      586.345      65.920     214.481
  C      584.325      67.200     214.045
  O      584.621      67.287     212.628
  C      583.382      66.000     214.240
  O      582.018      66.447     214.178
  C      583.639      65.153     213.016
  O      582.529      64.300     212.730
  C      583.897      66.234     211.964
  N      583.616      65.036     207.054
  C      582.738      65.770     207.831
  N      581.590      66.163     207.231
  N      582.972      66.099     209.074
  C      584.152      65.628     209.543
  C      585.112      64.903     208.868
  C      584.837      64.537     207.497
  O      585.560      63.867     206.759
  N      586.200      64.636     209.660
  C      585.888      65.170     210.832
  N      584.641      65.744     210.822
  O      587.665      63.835     215.000
  O      588.690      66.082     215.646
  H      582.708      63.889     211.858
  H      588.608      63.603     215.119
  H      583.391      64.796     206.102
  H      586.507      65.135     211.723
  H      582.957      66.660     211.589
  H      584.528      64.527     213.170
  H      581.324      65.884     206.302
  H      583.544      65.449     215.175
  H      580.910      66.663     207.789
  H      583.824      68.138     214.322
  H      586.250      67.966     214.628
  H      585.416      67.076     215.915
  P      581.143      66.222     215.502
  C      579.342      64.827     214.223
  O      579.638      65.981     214.995
  O      581.091      67.677     216.169
  O      581.691      65.190     216.430
  H      580.943      67.605     217.130
  H      578.637      64.209     214.779
  H      580.245      64.237     213.999
  H      578.878      65.138     213.281
  H      586.768      64.556     218.890
  H      588.152      65.416     218.257
  H      587.889      63.743     217.824

 3  4  5  6  7  8  9  10  11  12  23  26  30  31 0
 6-311+G(2d,p)
 ****
 33  35  36  37  38 0
 6-311+G(2d,p)
 ****
 1  2  13  14  15  16  17  18  19  20  21  22  24  25 0
 3-21G
 ****
 27  28  29  32  34  39  40  41  42  43  44  45  46  47  48  49 0
 3-21G
 ****


