%nproc=1
%NoSave
%Mem=1900MB
#P OB98/GEN NMR

erre ene a

0 1
  C      135.615     774.084    -300.670
  O      135.507     775.424    -300.256
  P      134.500     775.810    -299.067
  C      135.540     774.549    -297.080
  O      135.339     775.819    -297.699
  C      136.432     774.692    -295.852
  O      137.782     775.017    -296.240
  C      136.009     775.801    -294.899
  O      134.894     775.405    -294.123
  C      137.288     776.014    -294.100
  O      137.405     775.038    -293.056
  C      138.368     775.790    -295.169
  N      140.810     780.102    -293.950
  C      140.269     779.127    -293.193
  N      139.597     778.024    -293.589
  C      139.493     777.999    -294.928
  C      139.962     778.940    -295.839
  C      140.677     780.029    -295.301
  N      141.280     780.993    -296.072
  N      139.627     778.575    -297.125
  C      138.961     777.444    -297.000
  N      138.912     777.031    -295.698
  O      133.229     775.030    -299.022
  O      134.206     777.363    -299.311
  H      138.274     775.153    -292.637
  H      133.250     777.497    -299.464
  H      140.400     779.245    -292.123
  H      138.511     776.884    -297.815
  H      139.210     775.208    -294.781
  H      137.335     777.006    -293.627
  H      135.785     776.714    -295.463
  H      136.457     773.726    -295.329
  H      136.009     773.880    -297.804
  H      141.889     781.646    -295.594
  H      141.452     780.793    -297.058
  H      134.568     774.131    -296.791
  P      134.284     776.413    -293.030
  C      132.570     777.306    -294.713
  O      132.764     776.694    -293.458
  O      135.103     777.626    -292.746
  O      134.118     775.493    -291.728
  H      134.246     776.042    -290.931
  H      132.777     778.380    -294.645
  H      131.529     777.169    -295.020
  H      133.220     776.855    -295.475
  H      136.327     774.013    -301.466
  H      134.662     773.738    -301.012
  H      135.939     773.481    -299.847

 3  4  5  6  7  8  9  10  11  12  22  25  29  30  31  32 0
 6-311+G(2d,p)
 ****
 33  36  37 0
 6-311+G(2d,p)
 ****
 1  2  13  14  15  16  17  18  19  20  21  23  24  26 0
 3-21G
 ****
 27  28  34  35  38  39  40  41  42  43  44  45  46  47  48 0
 3-21G
 ****


