%nproc=1
%NoSave
%Mem=1900MB
#P OB98/GEN NMR

erre ene a

0 1
  C      -91.147    -396.945     -22.226
  O      -91.541    -396.328     -21.016
  H      -90.370    -397.682     -22.007
  H      -90.743    -396.198     -22.915
  H      -91.999    -397.456     -22.685
  P      -92.695    -395.219     -21.124
  C      -94.844    -395.654     -22.534
  O      -94.054    -396.019     -21.413
  C      -96.336    -395.771     -22.198
  O      -96.605    -397.129     -21.736
  C      -96.797    -394.823     -21.077
  O      -98.185    -394.520     -21.301
  C      -96.661    -395.709     -19.848
  O      -97.337    -395.151     -18.745
  C      -97.195    -397.019     -20.420
  N      -98.418    -399.750     -16.273
  C      -98.997    -398.670     -16.841
  N      -98.621    -398.004     -17.951
  C      -97.536    -398.575     -18.506
  C      -96.845    -399.687     -18.049
  C      -97.327    -400.284     -16.869
  N      -96.735    -401.381     -16.285
  N      -95.780    -399.975     -18.882
  C      -95.830    -399.055     -19.826
  N      -96.869    -398.184     -19.633
  O      -92.378    -394.492     -22.514
  O      -92.764    -394.251     -19.990
  H      -97.103    -395.623     -17.917
  H      -91.846    -393.689     -22.356
  H      -99.875    -398.283     -16.331
  H      -95.143    -398.967     -20.656
  H      -98.281    -396.996     -20.545
  H      -95.611    -395.810     -19.556
  H      -96.223    -393.896     -21.031
  H      -96.922    -395.627     -23.113
  H      -94.597    -396.323     -23.365
  H      -94.616    -394.625     -22.822
  H      -97.131    -401.740     -15.432
  H      -95.911    -401.778     -16.707
  P      -98.598    -393.033     -21.751
  C      -98.027    -391.575     -23.849
  O      -98.285    -392.867     -23.316
  O      -97.437    -392.150     -21.087
  O      -99.942    -392.568     -21.298
  H      -97.776    -391.253     -20.900
  H      -97.840    -391.653     -24.900
  H      -97.171    -391.154     -23.365
  H      -98.876    -390.945     -23.684

 6  7  8  9  10  11  12  13  14  15  25  28  32  33  34  35 0
 6-311+G(2d,p)
 ****
 36  37  40 0
 6-311+G(2d,p)
 ****
 1  2  3  4  5  16  17  18  19  20  21  22  23  24 0
 3-21G
 ****
 26  27  29  30  31  38  39 41  42  43  44  45  46  47  48 0
 3-21G
 ****


