%nproc=1
%NoSave
%Mem=1900MB
#P OB98/GEN NMR

erre ene a

0 1
  C      -36.962    -276.900     943.545
  O      -38.170    -277.470     943.086
  H      -37.193    -276.041     944.181
  H      -36.351    -276.551     942.702
  H      -36.392    -277.627     944.127
  P      -38.092    -278.650     942.005
  C      -40.564    -278.145     941.404
  O      -39.232    -278.322     940.928
  C      -41.426    -277.490     940.330
  O      -41.159    -276.072     940.264
  C      -41.152    -278.034     938.930
  O      -41.735    -279.304     938.760
  C      -41.724    -276.920     938.074
  O      -43.151    -277.025     937.980
  C      -41.318    -275.655     938.883
  N      -40.111    -275.032     938.380
  C      -40.246    -273.711     937.924
  O      -41.333    -273.147     937.972
  N      -39.132    -273.086     937.411
  C      -37.993    -273.703     937.364
  N      -36.938    -273.023     936.842
  C      -37.799    -275.086     937.845
  C      -38.890    -275.685     938.321
  O      -38.128    -280.056     942.531
  O      -36.738    -278.338     941.206
  H      -43.477    -277.132     938.900
  H      -35.976    -278.787     941.638
  H      -36.835    -275.557     937.793
  H      -38.841    -276.697     938.705
  H      -42.127    -274.916     938.864
  H      -41.321    -276.938     937.056
  H      -40.067    -278.072     938.752
  H      -42.480    -277.623     940.602
  H      -37.108    -272.069     936.512
  H      -40.504    -277.493     942.290
  H      -35.983    -273.368     936.841
  H      -41.000    -279.104     941.712
  P      -41.007    -280.430     937.860
  C      -43.020    -281.960     938.389
  O      -42.195    -281.408     937.374
  O      -39.846    -281.097     938.503
  O      -40.632    -279.622     936.523
  H      -39.866    -279.025     936.672
  H      -43.764    -282.586     937.943
  H      -43.497    -281.170     938.930
  H      -42.421    -282.540     939.059

 6  7  8  9  10  11  12  13  14  15  16  26  30  31  32  33  35 0
 6-311+G(2d,p)
 ****
 37  38 0
 6-311+G(2d,p)
 ****
 1  2  3  4  5  17  18  19  20  21  22  23  24  25 0
 3-21G
 ****
 27  28  29  34  36  39  40  41  42  43  44  45  46 0
 3-21G
 ****


