%nproc=1
%NoSave
%Mem=1900MB
#P OB98/GEN NMR

erre ene a

0 1
  C      -91.744     590.083     172.975
  O      -91.052     589.739     171.780
  P      -90.319     590.913     170.969
  C      -92.307     590.957     169.292
  O      -91.461     591.708     170.161
  C      -92.129     591.390     167.842
  O      -92.749     590.397     166.969
  C      -92.752     592.742     167.500
  O      -91.929     593.351     166.491
  C      -94.085     592.364     166.878
  O      -94.622     593.407     166.069
  C      -93.686     591.098     166.117
  N      -96.675     589.224     162.418
  C      -95.602     590.033     162.376
  N      -94.849     590.481     163.404
  C      -95.329     590.029     164.577
  C      -96.445     589.229     164.780
  C      -97.141     588.809     163.630
  N      -98.234     587.989     163.666
  N      -96.639     588.994     166.122
  C      -95.653     589.639     166.729
  N      -94.829     590.258     165.832
  O      -89.541     590.111     169.820
  O      -89.390     591.764     171.760
  H      -95.361     593.043     165.549
  H      -88.573     590.166     169.970
  H      -95.277     590.343     161.385
  H      -95.506     589.678     167.802
  H      -93.181     591.322     165.178
  H      -94.806     592.141     167.676
  H      -92.858     593.416     168.347
  H      -91.059     591.390     167.610
  H      -93.351     591.130     169.590
  H      -98.593     587.625     162.793
  H      -98.470     587.526     164.538
  H      -92.087     589.883     169.403
  P      -91.194     594.721     166.876
  C      -92.507     596.199     165.203
  O      -92.219     595.904     166.556
  O      -90.068     594.871     165.742
  O      -90.587     594.727     168.246
  H      -89.318     595.386     166.088
  H      -93.542     596.541     165.127
  H      -92.366     595.329     164.552
  H      -91.845     597.005     164.863
  H      -92.179     589.203     173.401
  H      -92.516     590.789     172.750
  H      -91.058     590.516     173.673

 3  4  5  6  7  8  9  10  11  12  22  25  29  30  31  32 0
 6-311+G(2d,p)
 ****
 33  36  37 0
 6-311+G(2d,p)
 ****
 1  2  13  14  15  16  17  18  19  20  21  23  24  26 0
 3-21G
 ****
 27  28  34  35  38  39  40  41  42  43  44  45  46  47  48 0
 3-21G
 ****


