%nproc=1
%NoSave
%Mem=1900MB
#P OB98/GEN NMR

erre ene a

0 1
  C     -109.584     -99.344     198.777
  O     -108.823     -98.823     197.707
  H     -108.975     -99.313     199.689
  H     -109.853    -100.385     198.576
  H     -110.490     -98.754     198.940
  P     -109.546     -98.565     196.298
  C     -109.227    -101.032     195.619
  O     -108.982     -99.672     195.281
  C     -108.495    -101.951     194.636
  O     -108.792    -103.335     194.935
  C     -108.896    -101.744     193.175
  O     -108.304    -100.571     192.647
  C     -108.401    -103.047     192.559
  O     -106.986    -102.995     192.322
  C     -108.735    -104.064     193.686
  N     -109.979    -104.797     193.449
  C     -109.975    -106.148     193.789
  O     -108.980    -106.727     194.227
  N     -111.158    -106.817     193.592
  C     -112.285    -106.298     193.019
  O     -113.303    -106.960     192.817
  C     -112.214    -104.880     192.646
  C     -111.088    -104.203     192.875
  O     -109.499     -97.165     195.786
  O     -111.050     -99.048     196.556
  H     -106.562    -102.810     193.184
  H     -111.624     -98.273     196.715
  H     -111.171    -107.798     193.825
  H     -113.095    -104.433     192.182
  H     -111.019    -103.157     192.605
  H     -107.918    -104.796     193.787
  H     -108.875    -103.267     191.606
  H     -109.990    -101.705     193.080
  H     -107.413    -101.799     194.768
  H     -110.304    -101.222     195.558
  H     -108.889    -101.212     196.641
  P     -109.195     -99.468     191.901
  C     -108.409    -100.053     189.534
  O     -108.426     -99.058     190.547
  O     -109.621     -98.311     192.750
  O     -110.462    -100.291     191.370
  H     -111.251    -100.078     191.913
  H     -107.878     -99.685     188.681
  H     -109.413    -100.292     189.252
  H     -107.923    -100.931     189.905

 6  7  8  9  10  11  12  13  14  15  16  26  31  32  33  34  35 0
 6-311+G(2d,p)
 ****
 36  37 0
 6-311+G(2d,p)
 ****
 1  2  3  4  5  17  18  19  20  21  22  23  24  25 0
 3-21G
 ****
 27  28  29  30  38  39  40  41  42  43  44  45 0
 3-21G
 ****


