%nproc=1
%NoSave
%Mem=1900MB
#P OB98/GEN NMR

erre ene a

0 1
  C      250.184     362.693     283.076
  O      249.237     362.978     282.056
  P      248.542     364.433     282.080
  C      246.491     363.465     283.354
  O      246.962     364.190     282.223
  C      244.959     363.400     283.370
  O      244.535     362.552     284.475
  C      244.276     364.769     283.558
  O      243.064     364.726     282.794
  C      243.988     364.779     285.056
  O      243.021     365.739     285.452
  C      243.600     363.325     285.263
  N      240.808     361.968     289.336
  C      240.456     362.248     288.056
  N      241.264     362.592     287.011
  C      242.551     362.625     287.406
  C      243.058     362.384     288.687
  C      242.121     362.035     289.675
  N      242.478     361.766     290.985
  N      244.426     362.538     288.700
  C      244.744     362.874     287.470
  N      243.659     362.916     286.652
  O      248.701     364.930     280.560
  O      249.138     365.405     283.050
  H      242.249     365.690     284.864
  H      248.898     365.878     280.516
  H      239.395     362.177     287.836
  H      245.743     363.107     287.121
  H      242.589     363.102     284.879
  H      244.913     365.018     285.598
  H      244.880     365.620     283.222
  H      244.620     362.933     282.450
  H      246.827     363.966     284.266
  H      241.725     361.729     291.652
  H      243.418     362.021     291.266
  H      246.927     362.458     283.352
  P      242.929     365.652     281.498
  C      241.065     366.970     282.695
  O      241.409     366.200     281.549
  O      242.834     364.550     280.338
  O      244.021     366.673     281.297
  H      242.156     363.882     280.538
  H      240.056     367.343     282.553
  H      241.754     367.805     282.811
  H      241.082     366.332     283.586
  H      250.565     361.702     282.942
  H      249.711     362.767     284.033
  H      250.990     363.395     283.021

 3  4  5  6  7  8  9  10  11  12  22  25  29  30  31  32 0
 6-311+G(2d,p)
 ****
 33  36  37 0
 6-311+G(2d,p)
 ****
 1  2  13  14  15  16  17  18  19  20  21  23  24  26 0
 3-21G
 ****
 27  28  34  35  38  39  40  41  42  43  44  45  46  47  48 0
 3-21G
 ****


