%nproc=1
%NoSave
%Mem=1900MB
#P OB98/GEN NMR

erre ene a

0 1
  C      -81.866    -617.835    -189.758
  O      -80.484    -618.060    -189.547
  H      -82.331    -617.591    -188.800
  H      -82.342    -618.736    -190.154
  H      -82.021    -616.998    -190.448
  P      -79.539    -618.287    -190.823
  C      -79.939    -615.839    -191.527
  O      -79.966    -617.207    -191.920
  C      -78.964    -615.073    -192.403
  O      -79.448    -615.018    -193.764
  C      -78.769    -613.610    -191.980
  O      -77.937    -613.519    -190.841
  C      -78.187    -613.023    -193.256
  O      -76.779    -613.297    -193.350
  C      -78.972    -613.774    -194.345
  N      -80.079    -612.996    -194.888
  C      -79.831    -612.312    -196.081
  O      -78.738    -612.312    -196.651
  N      -80.887    -611.587    -196.578
  C      -82.090    -611.403    -195.964
  O      -82.969    -610.671    -196.417
  C      -82.292    -612.120    -194.709
  C      -81.297    -612.876    -194.233
  O      -79.446    -619.695    -191.317
  O      -78.112    -617.750    -190.322
  H      -76.683    -614.269    -193.376
  H      -77.524    -618.503    -190.139
  H      -80.720    -611.068    -197.430
  H      -83.238    -612.010    -194.197
  H      -81.421    -613.417    -193.303
  H      -78.307    -614.049    -195.171
  H      -78.302    -611.943    -193.293
  H      -79.741    -613.149    -191.790
  H      -77.998    -615.611    -192.406
  H      -79.617    -615.785    -190.483
  H      -80.960    -615.427    -191.612
  P      -78.144    -612.322    -189.794
  C      -79.559    -613.668    -188.119
  O      -79.538    -612.577    -189.040
  O      -77.973    -610.947    -190.354
  O      -77.063    -612.611    -188.654
  H      -76.437    -611.867    -188.599
  H      -80.531    -613.744    -187.678
  H      -78.832    -613.501    -187.352
  H      -79.330    -614.576    -188.636

 6  7  8  9  10  11  12  13  14  15  16  26  31  32  33  34  35 0
 6-311+G(2d,p)
 ****
 36  37 0
 6-311+G(2d,p)
 ****
 1  2  3  4  5  17  18  19  20  21  22  23  24  25 0
 3-21G
 ****
 27  28  29  30  38  39  40  41  42  43  44  45 0
 3-21G
 ****


