%nproc=1
%NoSave
%Mem=1900MB
#P OB98/GEN NMR

erre ene a

0 1
  C     -112.987    -473.564    -554.121
  O     -114.157    -474.103    -553.536
  H     -112.402    -474.382    -554.544
  H     -112.384    -473.061    -553.359
  H     -113.241    -472.862    -554.918
  P     -115.265    -473.103    -552.953
  C     -116.637    -472.798    -555.112
  O     -115.754    -472.190    -554.178
  C     -118.002    -472.122    -555.054
  O     -118.554    -472.225    -553.721
  C     -117.972    -470.631    -555.374
  O     -117.828    -470.420    -556.764
  C     -119.302    -470.191    -554.783
  O     -120.388    -470.513    -555.663
  C     -119.376    -471.056    -553.501
  N     -118.944    -470.329    -552.302
  C     -119.926    -469.594    -551.646
  O     -121.090    -469.534    -552.027
  N     -119.503    -468.886    -550.553
  C     -118.214    -468.773    -550.118
  O     -117.850    -467.959    -549.276
  C     -117.237    -469.628    -550.806
  C     -117.636    -470.344    -551.858
  O     -114.878    -472.353    -551.722
  O     -116.527    -474.053    -552.689
  H     -116.578    -474.265    -551.739
  H     -120.423    -471.491    -555.714
  H     -120.198    -468.310    -550.096
  H     -116.214    -469.619    -550.450
  H     -116.923    -470.961    -552.400
  H     -120.398    -471.407    -553.334
  H     -119.341    -469.116    -554.605
  H     -117.159    -470.146    -554.816
  H     -118.678    -472.652    -555.738
  H     -116.742    -473.858    -554.855
  H     -116.210    -472.717    -556.119
  P     -117.088    -469.115    -557.328
  C     -114.975    -470.321    -558.139
  O     -115.505    -469.361    -557.235
  O     -117.553    -467.826    -556.745
  O     -117.365    -469.167    -558.904
  H     -117.750    -468.307    -559.190
  H     -113.919    -470.405    -557.991
  H     -115.171    -470.011    -559.144
  H     -115.436    -471.270    -557.962

 6  7  8  9  10  11  12  13  14  15  16  27  31  32  33  34  35 0
 6-311+G(2d,p)
 ****
 36  37 0
 6-311+G(2d,p)
 ****
 1  2  3  4  5  17  18  19  20  21  22  23  24  25 0
 3-21G
 ****
 26  28  29  30  38  39  40  41  42  43  44  45 0
 3-21G
 ****


