%nproc=1
%NoSave
%Mem=1900MB
#P OB98/GEN NMR

erre ene a

0 1
  C      833.902    -632.640    -646.574
  O      835.028    -631.959    -647.083
  H      833.219    -631.917    -646.131
  H      834.211    -633.346    -645.808
  H      833.365    -633.170    -647.373
  P      836.041    -632.736    -648.055
  C      835.721    -631.038    -649.981
  O      836.630    -631.640    -649.067
  C      836.340    -629.812    -650.649
  O      836.232    -628.673    -649.738
  C      837.832    -629.974    -651.009
  O      838.081    -629.194    -652.164
  C      838.503    -629.359    -649.789
  O      839.854    -629.036    -650.048
  C      837.570    -628.172    -649.509
  N      837.740    -627.619    -648.162
  C      838.820    -626.793    -647.946
  O      839.676    -626.538    -648.826
  N      838.977    -626.300    -646.682
  C      838.189    -626.594    -645.609
  O      838.375    -626.150    -644.500
  C      837.056    -627.515    -645.888
  C      836.876    -627.969    -647.139
  O      835.497    -633.962    -648.712
  O      837.308    -633.069    -647.120
  H      839.898    -628.329    -650.750
  H      837.733    -633.887    -647.417
  H      839.780    -625.703    -646.527
  H      836.407    -627.775    -645.052
  H      836.069    -628.658    -647.350
  H      837.754    -627.364    -650.233
  H      838.505    -630.059    -648.931
  H      838.127    -631.019    -651.166
  H      835.755    -629.562    -651.541
  H      834.829    -630.747    -649.399
  H      835.420    -631.773    -650.743
  P      839.481    -629.264    -652.972
  C      838.604    -630.344    -655.156
  O      839.176    -629.177    -654.548
  O      840.347    -630.435    -652.582
  O      840.211    -627.874    -652.661
  H      841.187    -628.004    -652.699
  H      838.449    -630.163    -656.199
  H      837.667    -630.566    -654.689
  H      839.269    -631.173    -655.033

 6  7  8  9  10  11  12  13  14  15  16  26  31  32  33  34  35 0
 6-311+G(2d,p)
 ****
 36  37 0
 6-311+G(2d,p)
 ****
 1  2  3  4  5  17  18  19  20  21  22  23  24  25 0
 3-21G
 ****
 27  28  29  30  38  39  40  41  42  43  44  45 0
 3-21G
 ****


