%nproc=1
%NoSave
%Mem=1900MB
#P OB98/GEN NMR

erre ene a

0 1
  C     -156.984     156.392     311.680
  O     -157.783     156.126     312.834
  P     -159.162     155.327     312.653
  C     -160.585     156.280     314.579
  O     -159.841     155.166     314.098
  C     -160.588     156.308     316.109
  O     -159.395     156.925     316.633
  C     -161.744     157.106     316.690
  O     -162.962     156.391     316.580
  C     -161.258     157.344     318.109
  O     -161.522     156.201     318.944
  C     -159.733     157.510     317.910
  N     -159.290     158.893     317.998
  C     -158.874     159.325     319.263
  O     -158.936     158.562     320.228
  N     -158.417     160.616     319.397
  C     -158.385     161.399     318.368
  N     -157.920     162.663     318.563
  C     -158.825     160.987     317.024
  C     -159.270     159.735     316.911
  O     -159.082     154.078     311.840
  O     -160.109     156.417     311.946
  H     -162.491     156.173     319.061
  H     -160.754     155.952     311.380
  H     -158.774     161.679     316.190
  H     -159.617     159.348     315.958
  H     -159.187     156.933     318.664
  H     -161.754     158.201     318.574
  H     -161.831     158.067     316.162
  H     -160.635     155.273     316.466
  H     -157.633     162.924     319.494
  H     -161.612     156.222     314.204
  H     -157.810     163.331     317.810
  H     -160.152     157.197     314.166
  P     -164.310     157.239     316.404
  C     -165.630     155.771     318.086
  O     -165.543     156.282     316.772
  O     -164.433     157.401     314.813
  O     -164.308     158.568     317.083
  H     -164.835     158.264     314.601
  H     -166.653     155.414     318.262
  H     -165.394     156.538     318.830
  H     -164.943     154.928     318.203
  H     -156.105     156.929     311.971
  H     -157.547     156.979     310.984
  H     -156.702     155.468     311.221

 3  4  5  6  7  8  9  10  11  12  13  23  27  28  29  30  32 0
 6-311+G(2d,p)
 ****
 34  35 0
 6-311+G(2d,p)
 ****
 1  2  14  15  16  17  18  19  20  21  22  24  25  26 0
 3-21G
 ****
 31  33  36  37  38  39  40  41  42  43  44  45  46 0
 3-21G
 ****


