%nproc=1
%NoSave
%Mem=1900MB
#P OB98/GEN NMR

erre ene a

0 1
  C      187.916      40.214     218.213
  O      186.541      39.882     218.168
  P      186.081      38.362     218.375
  C      184.779      38.769     216.181
  O      184.794      38.110     217.452
  C      183.533      38.382     215.397
  O      183.637      37.029     214.910
  C      182.247      38.424     216.220
  O      181.817      39.760     216.410
  C      181.316      37.570     215.369
  O      180.768      38.338     214.286
  C      182.284      36.497     214.825
  N      179.558      32.237     215.441
  C      179.306      33.378     214.764
  N      180.070      34.486     214.678
  C      181.183      34.345     215.417
  C      181.563      33.257     216.191
  C      180.705      32.146     216.176
  N      180.974      30.952     216.813
  N      182.771      33.514     216.826
  C      183.102      34.725     216.448
  N      182.208      35.247     215.542
  O      185.945      37.919     219.791
  O      187.223      37.517     217.631
  H      180.040      37.820     213.891
  H      187.660      36.920     218.277
  H      178.380      33.388     214.203
  H      183.977      35.266     216.784
  H      182.104      36.282     213.766
  H      180.487      37.159     215.935
  H      182.404      37.934     217.185
  H      183.460      39.050     214.527
  H      185.679      38.449     215.636
  H      180.366      30.177     216.609
  H      181.931      30.772     217.088
  H      184.818      39.849     216.341
  P      181.693      40.359     217.889
  C      179.343      41.316     217.477
  O      180.685      41.611     217.803
  O      182.982      40.632     218.586
  O      180.822      39.256     218.666
  H      181.097      39.242     219.605
  H      179.264      41.131     216.398
  H      178.718      42.159     217.739
  H      178.993      40.431     218.016
  H      188.034      41.266     218.056
  H      188.438      39.678     217.448
  H      188.316      39.949     219.170

 3  4  5  6  7  8  9  10  11  12  22  25  29  30  31  32 0
 6-311+G(2d,p)
 ****
 33  36  37 0
 6-311+G(2d,p)
 ****
 1  2  13  14  15  16  17  18  19  20  21  23  24  26 0
 3-21G
 ****
 27  28  34  35  38  39  40  41  42  43  44  45  46  47  48 0
 3-21G
 ****


