%nproc=1
%NoSave
%Mem=1900MB
#P OB98/GEN NMR

erre ene a

0 1
  C      -14.767     -63.231     -74.610
  O      -14.956     -63.657     -75.944
  H      -15.745     -63.041     -74.162
  H      -14.181     -62.307     -74.584
  H      -14.260     -64.011     -74.037
  P      -13.631     -63.937     -76.804
  C      -13.413     -66.500     -76.630
  O      -13.856     -65.404     -77.421
  C      -14.174     -67.771     -77.008
  O      -15.550     -67.635     -76.566
  C      -14.200     -68.044     -78.517
  O      -14.138     -69.454     -78.738
  C      -15.567     -67.533     -78.937
  O      -16.021     -68.131     -80.147
  C      -16.400     -67.867     -77.702
  N      -21.453     -67.903     -78.330
  C      -20.537     -68.895     -78.305
  N      -19.206     -68.798     -78.106
  C      -18.855     -67.521     -77.863
  C      -19.673     -66.406     -77.857
  C      -21.037     -66.632     -78.116
  N      -21.972     -65.626     -78.180
  N      -18.932     -65.266     -77.615
  C      -17.689     -65.688     -77.467
  N      -17.593     -67.042     -77.630
  O      -12.340     -63.743     -76.081
  O      -13.855     -62.990     -78.075
  H      -16.863     -67.702     -80.409
  H      -14.759     -63.078     -78.432
  H      -20.922     -69.900     -78.473
  H      -16.830     -65.057     -77.261
  H      -16.727     -68.915     -77.685
  H      -15.525     -66.448     -79.094
  H      -13.393     -67.549     -79.057
  H      -13.744     -68.617     -76.458
  H      -13.568     -66.284     -75.567
  H      -22.930     -65.878     -78.369
  H      -21.686     -64.671     -78.018
  H      -12.340     -66.631     -76.806
  P      -12.790     -70.093     -79.325
  C      -11.860     -70.956     -77.082
  O      -12.337     -71.306     -78.374
  O      -11.709     -69.123     -79.667
  O      -13.306     -70.862     -80.637
  H      -12.667     -70.718     -81.362
  H      -11.591     -71.844     -76.548
  H      -12.627     -70.437     -76.547
  H      -11.002     -70.324     -77.178

 6  7  8  9  10  11  12  13  14  15  25  28  32  33  34  35 0
 6-311+G(2d,p)
 ****
 36  39  40 0
 6-311+G(2d,p)
 ****
 1  2  3  4  5  16  17  18  19  20  21  22  23  24 0
 3-21G
 ****
 26  27  29  30  31  37  38  41  42  43  44  45  46  47 0
 3-21G
 ****
 48 0
 3-21G
 ****


