%nproc=1
%NoSave
%Mem=1900MB
#P OB98/GEN NMR

erre ene a

0 1
  C      -18.128      17.415     -18.719
  O      -17.295      16.917     -17.691
  H      -19.146      17.058     -18.550
  H      -17.782      17.048     -19.687
  H      -18.132      18.509     -18.715
  P      -15.806      17.501     -17.602
  C      -14.655      19.157     -15.961
  O      -15.862      18.740     -16.581
  C      -14.941      20.281     -14.965
  O      -15.456      21.429     -15.698
  C      -15.977      19.917     -13.895
  O      -15.599      20.549     -12.667
  C      -17.248      20.562     -14.415
  O      -18.214      20.827     -13.407
  C      -16.685      21.831     -15.061
  N      -17.606      22.428     -16.025
  C      -18.797      22.950     -15.531
  O      -19.092      23.021     -14.340
  N      -19.678      23.407     -16.479
  C      -19.499      23.371     -17.830
  O      -20.335      23.777     -18.627
  C      -18.225      22.801     -18.290
  C      -17.353      22.360     -17.380
  O      -15.610      18.203     -19.026
  O      -14.740      16.500     -17.305
  H      -15.244      17.569     -19.671
  H      -18.471      19.968     -13.013
  H      -20.547      23.787     -16.138
  H      -18.052      22.746     -19.356
  H      -16.413      21.914     -17.687
  H      -16.427      22.569     -14.292
  H      -17.713      19.915     -15.167
  H      -16.098      18.841     -13.735
  H      -13.996      20.592     -14.505
  H      -13.964      19.525     -16.725
  H      -14.198      18.302     -15.452
  P      -15.140      19.597     -11.459
  C      -13.582      17.589     -12.094
  O      -13.725      18.989     -11.905
  O      -16.164      18.382     -11.618
  O      -15.167      20.283     -10.135
  H      -16.384      18.188     -12.545
  H      -12.577      17.370     -12.388
  H      -14.256      17.261     -12.857
  H      -13.805      17.081     -11.179

 6  7  8  9  10  11  12  13  14  15  16  27  31  32  33  34  35 0
 6-311+G(2d,p)
 ****
 36  37 0
 6-311+G(2d,p)
 ****
 1  2  3  4  5  17  18  19  20  21  22  23  24  25 0
 3-21G
 ****
 26  28  29  30  38  39  40  41  42  43  44  45 0
 3-21G
 ****


