%nproc=1
%NoSave
%Mem=1900MB
#P OB98/GEN NMR

erre ene a

0 1
  C      370.590    -174.045     120.224
  O      369.890    -172.942     120.818
  P      370.331    -171.418     120.571
  C      369.203    -169.316     119.591
  O      369.294    -170.742     119.547
  C      367.806    -168.828     119.177
  O      367.501    -169.240     117.830
  C      366.669    -169.345     120.046
  O      366.598    -168.619     121.261
  C      365.474    -169.166     119.114
  O      365.018    -167.797     119.144
  C      366.086    -169.499     117.746
  N      363.691    -172.472     114.332
  C      363.773    -171.127     114.470
  N      364.424    -170.407     115.412
  C      365.064    -171.227     116.262
  C      365.072    -172.610     116.254
  C      364.342    -173.243     115.239
  N      364.247    -174.613     115.121
  N      365.815    -173.100     117.312
  C      366.271    -172.023     117.929
  N      365.845    -170.864     117.335
  O      371.763    -171.254     120.189
  O      370.026    -170.674     121.956
  H      365.003    -167.515     120.074
  H      370.631    -169.916     122.063
  H      363.242    -170.551     113.713
  H      366.910    -172.034     118.806
  H      365.692    -168.841     116.959
  H      364.626    -169.796     119.390
  H      366.811    -170.414     120.256
  H      367.825    -167.730     119.183
  H      369.953    -168.904     118.908
  H      363.673    -174.991     114.382
  H      364.693    -175.196     115.817
  H      369.423    -168.990     120.607
  P      367.302    -169.194     122.584
  C      369.669    -169.093     123.573
  O      368.719    -168.464     122.728
  O      367.337    -170.685     122.701
  O      366.452    -168.539     123.771
  H      366.461    -169.131     124.550
  H      369.440    -168.843     124.613
  H      370.655    -168.717     123.326
  H      369.661    -170.171     123.436
  H      370.128    -174.963     120.522
  H      371.609    -174.037     120.549
  H      370.555    -173.957     119.158

 3  4  5  6  7  8  9  10  11  12  22  25  29  30  31  32 0
 6-311+G(2d,p)
 ****
 33  36  37 0
 6-311+G(2d,p)
 ****
 1  2  13  14  15  16  17  18  19  20  21  23  24  26 0
 3-21G
 ****
 27  28  34  35  38  39  40  41  42  43  44  45  46  47  48 0
 3-21G
 ****


