%nproc=1
%NoSave
%Mem=1900MB
#P OB98/GEN NMR

erre ene a

0 1
  C     -216.484    -133.945    -231.171
  O     -216.349    -133.180    -232.350
  H     -217.540    -134.190    -231.032
  H     -216.139    -133.371    -230.308
  H     -215.914    -134.875    -231.253
  P     -214.862    -132.729    -232.764
  C     -215.050    -130.318    -231.801
  O     -214.455    -131.605    -231.686
  C     -214.000    -129.225    -231.578
  O     -214.654    -127.932    -231.578
  C     -213.249    -129.368    -230.252
  O     -211.858    -129.120    -230.470
  C     -213.856    -128.301    -229.362
  O     -212.955    -127.866    -228.347
  C     -214.266    -127.231    -230.383
  N     -215.353    -126.392    -229.884
  C     -215.553    -125.166    -230.530
  O     -214.820    -124.831    -231.464
  N     -216.537    -124.328    -230.072
  C     -217.220    -124.652    -229.022
  N     -218.166    -123.768    -228.604
  C     -217.012    -125.910    -228.278
  C     -216.077    -126.726    -228.764
  O     -215.102    -131.897    -234.108
  O     -213.877    -133.840    -232.905
  H     -213.432    -127.226    -227.771
  H     -214.255    -131.738    -234.590
  H     -217.598    -126.129    -227.397
  H     -215.855    -127.672    -228.281
  H     -213.411    -126.585    -230.631
  H     -214.749    -128.703    -228.868
  H     -213.363    -130.355    -229.804
  H     -213.310    -129.227    -232.429
  H     -218.274    -122.910    -229.130
  H     -215.844    -130.225    -231.053
  H     -218.736    -123.903    -227.781
  H     -215.483    -130.211    -232.801
  P     -210.978    -130.386    -230.914
  C     -209.738    -130.703    -228.659
  O     -210.662    -131.242    -229.593
  O     -209.564    -129.743    -231.301
  O     -211.576    -131.166    -232.036
  H     -209.490    -129.641    -232.268
  H     -209.628    -131.378    -227.836
  H     -210.100    -129.761    -228.302
  H     -208.790    -130.563    -229.135

 6  7  8  9  10  11  12  13  14  15  16  26  30  31  32  33  35 0
 6-311+G(2d,p)
 ****
 37  38 0
 6-311+G(2d,p)
 ****
 1  2  3  4  5  17  18  19  20  21  22  23  24  25 0
 3-21G
 ****
 27  28  29  34  36  39  40  41  42  43  44  45  46 0
 3-21G
 ****


