%nproc=1
%NoSave
%Mem=1900MB
#P OB98/GEN NMR

erre ene a

0 1
  C      358.037    -124.977       3.361
  O      357.620    -126.313       3.530
  P      356.213    -126.648       4.233
  C      355.299    -126.600       6.638
  O      356.381    -126.251       5.781
  C      355.183    -125.594       7.779
  O      354.840    -124.266       7.278
  C      354.084    -125.909       8.781
  O      354.228    -127.073       9.566
  C      353.961    -124.587       9.521
  O      354.976    -124.460      10.520
  C      354.198    -123.573       8.374
  N      352.951    -122.927       7.942
  C      352.619    -121.755       8.615
  O      353.300    -121.263       9.514
  N      351.442    -121.170       8.235
  C      350.563    -121.656       7.308
  O      349.498    -121.101       7.048
  C      350.964    -122.910       6.648
  C      352.121    -123.477       6.993
  O      355.699    -128.026       3.996
  O      355.247    -125.486       3.686
  H      354.876    -123.583      10.932
  H      355.532    -124.583       3.905
  H      351.165    -120.326       8.715
  H      350.290    -123.315       5.897
  H      352.442    -124.404       6.518
  H      354.896    -122.784       8.698
  H      352.995    -124.485      10.026
  H      353.141    -126.052       8.223
  H      356.162    -125.511       8.265
  H      355.490    -127.595       7.055
  H      354.367    -126.658       6.057
  P      352.993    -127.912      10.136
  C      350.886    -127.224      11.475
  O      352.277    -127.054      11.277
  O      353.249    -129.361      10.413
  O      351.944    -127.805       8.930
  H      351.395    -128.609       8.898
  H      350.558    -126.526      12.256
  H      350.664    -128.238      11.801
  H      350.338    -126.993      10.552
  H      358.991    -124.960       2.877
  H      358.113    -124.503       4.317
  H      357.323    -124.454       2.760

 3  4  5  6  7  8  9  10  11  12  13  23  28  29  30  31  32 0
 6-311+G(2d,p)
 ****
 33  34 0
 6-311+G(2d,p)
 ****
 1  2  14  15  16  17  18  19  20  21  22  24  25  26  27 0
 3-21G
 ****
 35  36  37  38  39  40  41  42  43  44  45 0
 3-21G
 ****


