%nproc=1
%NoSave
%Mem=1900MB
#P OB98/GEN NMR

erre ene a

0 1
  C     -148.406    -698.961      93.657
  O     -148.163    -699.482      92.369
  H     -147.641    -698.215      93.890
  H     -148.363    -699.754      94.412
  H     -149.388    -698.473      93.687
  P     -149.048    -700.712      91.847
  C     -147.194    -702.380      91.210
  O     -148.174    -701.464      90.733
  C     -146.165    -702.690      90.115
  O     -146.863    -702.815      88.844
  C     -145.088    -701.609      89.957
  O     -143.845    -702.251      89.662
  C     -145.580    -700.821      88.765
  O     -144.524    -700.129      88.120
  C     -146.265    -701.897      87.915
  N     -147.248    -701.319      87.006
  C     -146.846    -701.144      85.674
  O     -145.711    -701.487      85.324
  N     -147.691    -700.525      84.796
  C     -148.832    -700.065      85.217
  N     -149.616    -699.433      84.303
  C     -149.291    -700.207      86.614
  C     -148.462    -700.834      87.441
  O     -150.444    -700.385      91.431
  O     -149.030    -701.739      93.082
  H     -143.942    -700.787      87.666
  H     -149.788    -701.565      93.674
  H     -150.248    -699.799      86.917
  H     -148.707    -700.972      88.494
  H     -145.524    -702.457      87.328
  H     -146.318    -700.073      89.090
  H     -144.977    -700.983      90.854
  H     -145.714    -703.665      90.326
  H     -149.242    -699.334      83.355
  H     -147.710    -703.305      91.506
  H     -150.500    -698.997      84.519
  H     -146.690    -701.962      92.086
  P     -142.751    -702.485      90.815
  C     -140.886    -702.416      89.076
  O     -141.434    -703.144      90.161
  O     -143.264    -703.199      92.027
  O     -142.275    -701.001      91.193
  H     -142.007    -700.981      92.134
  H     -140.020    -702.924      88.707
  H     -140.611    -701.436      89.407
  H     -141.614    -702.338      88.295

 6  7  8  9  10  11  12  13  14  15  16  26  30  31  32  33  35 0
 6-311+G(2d,p)
 ****
 37  38 0
 6-311+G(2d,p)
 ****
 1  2  3  4  5  17  18  19  20  21  22  23  24  25 0
 3-21G
 ****
 27  28  29  34  36  39  40  41  42  43  44  45  46 0
 3-21G
 ****


