%nproc=1
%NoSave
%Mem=1900MB
#P OB98/GEN NMR

erre ene a

0 1
  C       60.688     317.488       5.381
  O       59.514     318.068       5.930
  P       59.356     319.667       5.849
  C       59.166     319.704       8.450
  O       58.627     320.121       7.207
  C       58.747     320.662       9.565
  O       59.323     321.966       9.291
  C       57.233     320.857       9.714
  O       56.975     321.089      11.108
  C       56.975     322.131       8.930
  O       55.759     322.770       9.306
  C       58.240     322.920       9.246
  N       58.238     327.878       8.238
  C       57.792     327.204       9.357
  N       57.332     327.966      10.370
  N       57.792     325.901       9.471
  C       58.296     325.272       8.381
  C       58.732     325.826       7.201
  C       58.759     327.267       7.104
  O       59.228     327.907       6.162
  N       59.084     324.858       6.295
  C       58.935     323.726       6.952
  N       58.504     323.930       8.239
  O       58.227     319.855       4.730
  O       60.606     320.429       5.537
  H       55.027     322.141       9.145
  H       58.624     319.993       3.847
  H       58.231     328.887       8.212
  H       59.130     322.744       6.560
  H       58.188     323.429      10.218
  H       56.908     321.897       7.858
  H       57.329     328.976      10.364
  H       56.644     320.011       9.354
  H       57.030     327.500      11.217
  H       59.178     320.304      10.506
  H       60.257     319.701       8.378
  H       58.835     318.684       8.665
  P       55.601     320.530      11.715
  C       54.761     322.856      12.497
  O       55.137     321.545      12.867
  O       56.082     319.238      12.538
  O       54.567     320.166      10.702
  H       55.373     318.561      12.524
  H       54.113     323.276      13.274
  H       54.219     322.870      11.546
  H       55.658     323.479      12.411
  H       60.654     316.426       5.507
  H       61.548     317.879       5.884
  H       60.747     317.722       4.339

 3  4  5  6  7  8  9  10  11  12  23  26  30  31 0
 6-311+G(2d,p)
 ****
 33  35  36  37  38 0
 6-311+G(2d,p)
 ****
 1  2  13  14  15  16  17  18  19  20  21  22  24  25 0
 3-21G
 ****
 27  28  29  32  34  39  40  41  42  43  44  45  46  47  48  49 0
 3-21G
 ****


