%nproc=1
%NoSave
%Mem=1900MB
#P OB98/GEN NMR

erre ene a

0 1
  C     -138.932     727.262     169.417
  O     -138.676     728.593     169.018
  H     -138.189     726.607     168.959
  H     -139.927     726.952     169.083
  H     -138.862     727.162     170.507
  P     -139.546     729.779     169.658
  C     -141.575     731.201     168.946
  O     -140.643     730.193     168.562
  C     -142.893     731.002     168.195
  O     -142.727     731.327     166.795
  C     -143.414     729.561     168.228
  O     -143.983     729.267     169.489
  C     -144.393     729.599     167.064
  O     -145.634     730.217     167.448
  C     -143.635     730.485     166.046
  N     -142.918     729.702     165.033
  C     -143.689     729.247     163.960
  O     -144.892     729.458     163.852
  N     -143.013     728.483     163.037
  C     -141.713     728.073     163.132
  O     -141.220     727.218     162.404
  C     -140.943     728.652     164.239
  C     -141.568     729.425     165.129
  O     -138.767     730.915     170.237
  O     -140.426     729.037     170.775
  H     -140.028     729.191     171.651
  H     -146.151     730.335     166.630
  H     -143.569     728.099     162.285
  H     -139.887     728.409     164.311
  H     -141.023     729.833     165.975
  H     -144.335     731.157     165.530
  H     -144.634     728.602     166.692
  H     -142.602     728.864     167.988
  H     -143.637     731.690     168.614
  H     -141.162     732.177     168.698
  H     -141.731     731.138     170.030
  P     -143.762     727.835     170.172
  C     -145.013     725.602     170.152
  O     -144.677     726.758     169.416
  O     -143.899     727.821     171.665
  O     -142.270     727.414     169.739
  H     -141.752     727.196     170.543
  H     -145.622     724.960     169.550
  H     -145.553     725.884     171.032
  H     -144.119     725.086     170.433

 6  7  8  9  10  11  12  13  14  15  16  27  31  32  33  34  35 0
 6-311+G(2d,p)
 ****
 36  37 0
 6-311+G(2d,p)
 ****
 1  2  3  4  5  17  18  19  20  21  22  23  24  25 0
 3-21G
 ****
 26  28  29  30  38  39  40  41  42  43  44  45 0
 3-21G
 ****


