%nproc=1
%NoSave
%Mem=1900MB
#P OB98/GEN NMR

erre ene a

0 1
  C       -0.420     298.903    -255.769
  O       -1.230     297.817    -256.168
  H        0.210     299.200    -256.611
  H        0.225     298.605    -254.939
  H       -1.035     299.759    -255.474
  P       -2.394     297.317    -255.187
  C       -4.069     297.236    -257.146
  O       -3.448     296.515    -256.089
  C       -4.147     296.363    -258.395
  O       -2.846     296.254    -259.009
  C       -4.597     294.932    -258.124
  O       -5.994     294.873    -257.898
  C       -4.126     294.242    -259.398
  O       -5.048     294.468    -260.474
  C       -2.782     294.963    -259.659
  N       -1.620     294.204    -259.197
  C       -1.098     293.270    -260.086
  O       -1.592     293.048    -261.193
  N        0.004     292.585    -259.652
  C        0.572     292.678    -258.414
  O        1.528     292.000    -258.057
  C       -0.044     293.655    -257.505
  C       -1.093     294.362    -257.931
  O       -2.990     298.361    -254.301
  O       -1.692     296.155    -254.336
  H       -4.751     293.906    -261.217
  H       -1.433     296.498    -253.462
  H        0.390     291.893    -260.280
  H        0.375     293.753    -256.511
  H       -1.562     295.083    -257.271
  H       -2.659     295.159    -260.730
  H       -4.039     293.161    -259.281
  H       -4.046     294.515    -257.275
  H       -4.818     296.852    -259.112
  H       -3.472     298.128    -257.362
  H       -5.070     297.546    -256.825
  P       -6.581     294.208    -256.568
  C       -8.315     296.038    -256.132
  O       -8.114     294.665    -256.433
  O       -5.760     294.411    -255.337
  O       -6.696     292.655    -256.933
  H       -5.990     292.154    -256.479
  H       -9.364     296.238    -256.064
  H       -7.887     296.639    -256.906
  H       -7.846     296.271    -255.199

 6  7  8  9  10  11  12  13  14  15  16  26  31  32  33  34  35 0
 6-311+G(2d,p)
 ****
 36  37 0
 6-311+G(2d,p)
 ****
 1  2  3  4  5  17  18  19  20  21  22  23  24  25 0
 3-21G
 ****
 27  28  29  30  38  39  40  41  42  43  44  45 0
 3-21G
 ****


