%nproc=1
%NoSave
%Mem=1900MB
#P OB98/GEN NMR

erre ene a

0 1
  C     -779.106    -336.766     317.208
  O     -779.147    -336.640     318.635
  P     -778.325    -335.397     319.257
  C     -775.968    -335.026     320.307
  O     -776.879    -335.950     319.712
  C     -774.512    -335.464     320.125
  O     -774.233    -336.566     321.024
  C     -774.137    -335.938     318.716
  O     -772.806    -335.502     318.416
  C     -774.117    -337.438     318.838
  O     -773.320    -338.054     317.828
  C     -773.581    -337.595     320.260
  N     -772.652    -342.567     319.910
  C     -772.100    -341.510     319.209
  N     -771.190    -341.827     318.264
  N     -772.415    -340.257     319.412
  C     -773.315    -340.088     320.412
  C     -773.930    -341.040     321.184
  C     -773.604    -342.428     320.919
  O     -774.108    -343.412     321.471
  N     -774.789    -340.476     322.102
  C     -774.700    -339.176     321.873
  N     -773.824    -338.893     320.851
  O     -779.083    -335.119     320.638
  O     -778.297    -334.193     318.379
  H     -773.185    -338.983     318.095
  H     -779.377    -334.193     320.666
  H     -772.399    -343.515     319.700
  H     -775.259    -338.414     322.387
  H     -772.496    -337.401     320.296
  H     -775.145    -337.841     318.754
  H     -770.858    -342.772     318.102
  H     -774.817    -335.587     317.922
  H     -770.736    -341.069     317.757
  H     -773.865    -334.626     320.432
  H     -776.193    -334.926     321.372
  H     -776.123    -334.038     319.849
  P     -772.624    -334.588     317.104
  C     -772.294    -335.175     314.589
  O     -772.757    -335.594     315.861
  O     -771.061    -334.230     317.124
  O     -773.488    -333.375     317.071
  H     -770.900    -333.386     316.659
  H     -771.706    -334.264     314.642
  H     -773.162    -335.010     313.935
  H     -771.685    -335.972     314.157
  H     -779.681    -337.617     316.908
  H     -778.092    -336.890     316.890
  H     -779.515    -335.884     316.760

 3  4  5  6  7  8  9  10  11  12  23  26  30  31  33  0
 6-311+G(2d,p)
 ****
 35  36  37  38 0
 6-311+G(2d,p)
 ****
 1  2  13  14  15  16  17  18  19  20  21  22  24  25  27  28  29 0
 3-21G
 ****
 32  34  39  40  41  42  43  44  45  46  47  48  49 0
 3-21G
 ****


