%nproc=1
%NoSave
%Mem=1900MB
#P OB98/GEN NMR

erre ene a

0 1
  C       54.272    -311.741     333.809
  O       55.200    -312.804     333.754
  H       53.749    -311.682     332.852
  H       54.803    -310.800     333.977
  H       53.538    -311.904     334.604
  P       55.859    -313.272     335.139
  C       58.041    -311.873     335.212
  O       56.714    -312.030     335.697
  C       58.892    -311.111     336.232
  O       59.034    -311.926     337.422
  C       60.300    -310.771     335.729
  O       60.659    -309.469     336.202
  C       61.177    -311.817     336.395
  O       62.528    -311.386     336.543
  C       60.442    -312.033     337.710
  N       63.713    -314.503     340.644
  C       63.632    -313.159     340.332
  N       64.566    -312.349     340.878
  N       62.713    -312.651     339.553
  C       61.823    -313.571     339.109
  C       61.798    -314.924     339.337
  C       62.838    -315.478     340.182
  O       62.978    -316.661     340.476
  N       60.750    -315.524     338.681
  C       60.148    -314.530     338.055
  N       60.755    -313.326     338.289
  O       56.977    -314.320     334.674
  O       54.916    -313.880     336.122
  H       62.999    -312.072     337.060
  H       56.755    -315.207     335.012
  H       64.451    -314.841     341.239
  H       59.280    -314.631     337.418
  H       60.697    -311.272     338.459
  H       61.177    -312.734     335.793
  H       65.272    -312.662     341.523
  H       60.386    -310.795     334.638
  H       64.504    -311.356     340.695
  H       58.353    -310.206     336.527
  H       58.012    -311.317     334.270
  H       58.480    -312.860     335.029
  P       60.539    -308.255     335.161
  C       63.031    -308.006     334.501
  O       61.728    -308.390     334.086
  O       60.962    -306.982     336.033
  O       59.173    -308.090     334.580
  H       60.178    -306.435     336.226
  H       63.718    -308.146     333.693
  H       63.332    -308.607     335.334
  H       63.024    -306.975     334.789

 6  7  8  9  10  11  12  13  14  15  26  29  33  34 0
 6-311+G(2d,p)
 ****
 36  38  39  40  41 0
 6-311+G(2d,p)
 ****
 1  2  3  4  5  16  17  18  19  20  21  22  23  24  25 0
 3-21G
 ****
 27  28  30  31  32  35  37  42  43  44  45  46  47 0
 3-21G
 ****
 48  49 0
 3-21G
 ****


