%nproc=1
%NoSave
%Mem=1900MB
#P OB98/GEN NMR

erre ene a

0 1
  C       67.563     -52.998      25.640
  O       66.512     -52.667      24.742
  P       65.459     -51.550      25.211
  C       63.926     -53.550      25.801
  O       64.428     -52.281      26.204
  C       62.767     -53.981      26.694
  O       63.243     -54.088      28.065
  C       61.572     -53.013      26.695
  O       60.352     -53.766      26.625
  C       61.637     -52.368      28.070
  O       60.364     -51.901      28.501
  C       62.202     -53.525      28.893
  N       60.964     -52.493      33.681
  C       60.215     -53.089      32.685
  N       58.936     -53.399      32.996
  N       60.673     -53.353      31.489
  C       61.977     -53.017      31.329
  C       62.825     -52.430      32.242
  C       62.283     -52.088      33.542
  O       62.870     -51.480      34.436
  N       64.081     -52.257      31.717
  C       63.995     -52.733      30.490
  N       62.724     -53.160      30.189
  O       64.596     -51.299      23.885
  O       66.055     -50.281      25.716
  H       60.499     -51.451      29.356
  H       64.619     -50.352      23.652
  H       60.553     -52.295      34.580
  H       64.810     -52.758      29.775
  H       61.437     -54.299      29.047
  H       62.330     -51.520      28.038
  H       58.529     -53.256      33.909
  H       61.595     -52.273      25.891
  H       58.377     -53.859      32.287
  H       62.450     -54.989      26.391
  H       64.728     -54.293      25.869
  H       63.592     -53.485      24.759
  P       59.283     -53.271      25.533
  C       57.976     -52.437      27.630
  O       58.352     -52.205      26.286
  O       58.327     -54.546      25.346
  O       59.893     -52.820      24.247
  H       57.897     -54.524      24.471
  H       58.519     -53.280      28.071
  H       56.905     -52.645      27.670
  H       58.185     -51.539      28.218
  H       68.184     -53.750      25.200
  H       67.148     -53.368      26.554
  H       68.148     -52.125      25.841

 3  4  5  6  7  8  9  10  11  12  23  26  30  31  33  0
 6-311+G(2d,p)
 ****
 35  36  37  38 0
 6-311+G(2d,p)
 ****
 1  2  13  14  15  16  17  18  19  20  21  22  24  25  27  28  29 0
 3-21G
 ****
 32  34  39  40  41  42  43  44  45  46  47  48  49 0
 3-21G
 ****


