%nproc=1
%NoSave
%Mem=1900MB
#P OB98/GEN NMR

erre ene a

0 1
  C     -621.740     181.277    -852.117
  O     -621.098     182.160    -851.182
  P     -620.120     183.361    -851.627
  C     -621.285     185.232    -850.263
  O     -620.106     184.451    -850.442
  C     -621.190     186.058    -848.974
  O     -621.507     185.231    -847.821
  C     -619.811     186.620    -848.636
  O     -619.459     187.710    -849.493
  C     -619.967     186.978    -847.172
  O     -620.565     188.285    -847.013
  C     -620.938     185.893    -846.666
  N     -620.296     184.934    -845.775
  C     -620.411     185.179    -844.410
  O     -620.959     186.203    -844.001
  N     -619.884     184.249    -843.528
  C     -619.209     183.237    -843.993
  N     -618.732     182.359    -843.075
  C     -618.944     183.033    -845.435
  C     -619.509     183.905    -846.253
  O     -620.440     183.937    -852.966
  O     -618.647     182.732    -851.606
  H     -618.074     183.225    -852.223
  H     -620.073     188.895    -847.588
  H     -618.328     182.205    -845.755
  H     -619.366     183.808    -847.327
  H     -621.785     186.364    -846.144
  H     -619.008     187.006    -846.653
  H     -619.058     185.809    -848.760
  H     -621.933     186.876    -849.030
  H     -618.937     182.530    -842.092
  H     -622.145     184.558    -850.191
  H     -618.197     181.523    -843.324
  H     -621.425     185.879    -851.132
  P     -617.921     188.152    -849.482
  C     -617.456     187.726    -852.009
  O     -617.559     188.675    -850.960
  O     -617.115     186.782    -849.362
  O     -617.551     189.116    -848.384
  H     -616.352     186.910    -848.764
  H     -617.689     188.215    -852.950
  H     -618.127     186.880    -851.852
  H     -616.420     187.364    -852.055
  H     -622.336     180.566    -851.584
  H     -620.997     180.762    -852.690
  H     -622.365     181.846    -852.773

 3  4  5  6  7  8  9  10  11  12  13  24  27  28  29  30  32 0
 6-311+G(2d,p)
 ****
 34  35 0
 6-311+G(2d,p)
 ****
 1  2  14  15  16  17  18  19  20  21  22  23  25  26 0
 3-21G
 ****
 31  33  36  37  38  39  40  41  42  43  44  45  46 0
 3-21G
 ****


