%nproc=1
%NoSave
%Mem=1900MB
#P OB98/GEN NMR

erre ene a

0 1
  C     -150.525    -669.322     -88.778
  O     -150.171    -670.705     -88.967
  P     -150.633    -671.787     -87.874
  C     -152.519    -673.597     -87.697
  O     -151.758    -672.727     -88.527
  C     -153.674    -674.217     -88.493
  O     -154.636    -673.204     -88.870
  C     -153.246    -674.864     -89.804
  O     -152.637    -676.128     -89.594
  C     -154.583    -674.947     -90.546
  O     -155.327    -676.101     -90.130
  C     -155.279    -673.655     -90.079
  N     -155.277    -672.611     -91.102
  C     -155.895    -672.915     -92.309
  O     -156.384    -674.014     -92.558
  N     -155.906    -671.911     -93.248
  C     -155.312    -670.685     -93.119
  O     -155.342    -669.837     -94.007
  C     -154.605    -670.447     -91.858
  C     -154.615    -671.402     -90.922
  O     -151.496    -670.892     -86.861
  O     -149.528    -672.491     -87.147
  H     -156.233    -675.994     -90.487
  H     -151.466    -671.280     -85.965
  H     -156.376    -672.107     -94.117
  H     -154.102    -669.495     -91.725
  H     -154.095    -671.241     -89.979
  H     -156.322    -673.863     -89.806
  H     -154.454    -675.017     -91.634
  H     -152.575    -674.189     -90.349
  H     -154.182    -674.949     -87.845
  H     -152.935    -673.022     -86.855
  H     -151.864    -674.373     -87.290
  P     -151.036    -676.148     -89.513
  C     -149.342    -675.659     -87.560
  O     -150.684    -675.838     -87.973
  O     -150.669    -674.799     -90.301
  O     -150.425    -677.391     -90.087
  H     -151.331    -674.102     -90.164
  H     -148.745    -675.196     -88.345
  H     -148.921    -676.637     -87.308
  H     -149.325    -675.023     -86.678
  H     -150.142    -668.741     -89.591
  H     -150.106    -668.969     -87.859
  H     -151.590    -669.228     -88.743

 3  4  5  6  7  8  9  10  11  12  13  23  28  29  30  31  32 0
 6-311+G(2d,p)
 ****
 33  34 0
 6-311+G(2d,p)
 ****
 1  2  14  15  16  17  18  19  20  21  22  24  25  26 0
 3-21G
 ****
 27  35  36  37  38  39  40  41  42  43  44  45 0
 3-21G
 ****


