%nproc=1
%NoSave
%Mem=1900MB
#P OB98/GEN NMR

erre ene a

0 1
  C      -44.344     888.121     811.028
  O      -43.199     888.004     810.206
  P      -43.388     887.219     808.810
  C      -41.441     888.731     807.947
  O      -42.038     887.445     807.976
  C      -39.929     888.588     808.130
  O      -39.385     887.668     807.180
  C      -39.152     889.893     807.964
  O      -39.204     890.668     809.145
  C      -37.763     889.381     807.618
  O      -37.044     888.997     808.811
  C      -38.077     888.149     806.752
  N      -35.168     888.962     802.691
  C      -34.825     888.888     804.047
  N      -33.513     889.008     804.329
  N      -35.699     888.715     805.006
  C      -36.972     888.626     804.561
  C      -37.437     888.688     803.258
  C      -36.453     888.829     802.204
  O      -36.694     888.802     801.004
  N      -38.789     888.587     803.208
  C      -39.162     888.416     804.480
  N      -38.078     888.416     805.330
  O      -44.470     888.099     808.038
  O      -43.802     885.781     808.942
  H      -36.837     889.788     809.338
  H      -45.368     887.717     808.136
  H      -34.452     889.075     801.995
  H      -40.169     888.278     804.813
  H      -37.354     887.334     806.919
  H      -37.144     890.138     807.128
  H      -32.784     889.149     803.652
  H      -39.549     890.472     807.114
  H      -33.243     888.964     805.302
  H      -39.746     888.178     809.150
  H      -41.850     889.332     808.762
  H      -41.665     889.212     806.995
  P      -39.665     892.205     809.017
  C      -40.439     891.942     811.473
  O      -39.863     892.780     810.494
  O      -41.148     892.097     808.425
  O      -38.796     893.027     808.115
  H      -41.313     892.837     807.813
  H      -40.049     892.214     812.457
  H      -40.227     890.880     811.286
  H      -41.525     892.085     811.477
  H      -44.091     888.658     811.918
  H      -44.697     887.145     811.289
  H      -45.110     888.648     810.499

 3  4  5  6  7  8  9  10  11  12  23  26  30  31 0
 6-311+G(2d,p)
 ****
 33  35  36  37  38 0
 6-311+G(2d,p)
 ****
 1  2  13  14  15  16  17  18  19  20  21  22  24  25 0
 3-21G
 ****
 27  28  29  32  34  39  40  41  42  43  44  45  46  47  48  49 0
 3-21G
 ****


