%nproc=1
%NoSave
%Mem=1900MB
#P OB98/GEN NMR

erre ene a

0 1
  C      289.439      34.676      56.819
  O      288.819      33.815      57.754
  H      290.382      35.030      57.242
  H      288.794      35.536      56.618
  H      289.646      34.140      55.890
  P      287.417      33.173      57.311
  C      288.291      31.885      55.219
  O      287.777      31.813      56.540
  C      287.816      30.682      54.394
  O      288.084      30.947      52.985
  C      288.533      29.368      54.743
  O      287.627      28.286      54.467
  C      289.664      29.355      53.729
  O      290.260      28.081      53.651
  C      288.910      29.864      52.504
  N      292.243      28.455      48.893
  C      291.494      27.735      49.754
  N      290.620      28.180      50.679
  C      290.538      29.521      50.650
  C      291.231      30.387      49.822
  C      292.126      29.804      48.909
  N      292.896      30.535      48.035
  N      290.884      31.700      50.090
  C      289.996      31.623      51.061
  N      289.763      30.329      51.436
  O      286.917      34.150      56.147
  O      286.405      33.030      58.397
  H      290.579      27.792      54.532
  H      286.308      34.818      56.514
  H      291.616      26.657      49.696
  H      289.503      32.465      51.531
  H      288.244      29.099      52.088
  H      290.454      30.055      54.019
  H      288.860      29.314      55.784
  H      286.729      30.586      54.496
  H      289.385      31.891      55.272
  H      287.949      32.809      54.744
  H      293.525      30.041      47.423
  H      292.832      31.542      48.049
  P      287.477      27.098      55.542
  C      285.582      28.142      57.013
  O      285.980      27.114      56.118
  O      288.317      27.667      56.785
  O      288.001      25.768      55.115
  H      288.675      26.923      57.304
  H      284.560      27.996      57.292
  H      285.688      29.093      56.534
  H      286.198      28.112      57.887

 6  7  8  9  10  11  12  13  14  15  25  28  32  33  34  35 0
 6-311+G(2d,p)
 ****
 36  37  40 0
 6-311+G(2d,p)
 ****
 1  2  3  4  5  16  17  18  19  20  21  22  23  24 0
 3-21G
 ****
 26  27  29  30  31  38  39 41  42  43  44  45  46  47  48 0
 3-21G
 ****


