%nproc=1
%NoSave
%Mem=1900MB
#P OB98/GEN NMR

erre ene a

0 1
  C     -271.570     -15.735    -693.127
  O     -272.097     -14.626    -693.818
  H     -270.571     -15.482    -692.761
  H     -271.486     -16.593    -693.799
  H     -272.195     -15.998    -692.269
  P     -273.632     -14.656    -694.284
  C     -273.036     -15.581    -696.616
  O     -273.750     -15.797    -695.405
  C     -273.383     -16.669    -697.626
  O     -272.773     -16.378    -698.902
  C     -272.897     -18.059    -697.235
  O     -273.714     -18.622    -696.228
  C     -272.959     -18.768    -698.584
  O     -274.300     -19.185    -698.883
  C     -272.497     -17.645    -699.543
  N     -271.086     -17.750    -699.922
  C     -270.698     -18.931    -700.536
  O     -271.457     -19.873    -700.729
  N     -269.376     -19.003    -700.904
  C     -268.420     -18.066    -700.649
  O     -267.239     -18.198    -700.955
  C     -268.889     -16.849    -699.969
  C     -270.175     -16.745    -699.641
  O     -274.229     -13.337    -694.658
  O     -274.388     -15.311    -693.029
  H     -274.851     -18.382    -698.875
  H     -274.812     -14.609    -692.499
  H     -269.068     -19.860    -701.342
  H     -268.154     -16.080    -699.744
  H     -270.538     -15.863    -699.135
  H     -273.097     -17.664    -700.467
  H     -272.339     -19.666    -698.620
  H     -271.847     -18.015    -696.915
  H     -274.473     -16.668    -697.767
  H     -271.962     -15.617    -696.404
  H     -273.290     -14.594    -697.005
  P     -273.082     -19.546    -695.083
  C     -273.630     -21.644    -696.446
  O     -272.613     -20.918    -695.770
  O     -273.933     -19.714    -693.867
  O     -271.701     -18.821    -694.722
  H     -271.780     -18.367    -693.861
  H     -273.213     -22.536    -696.865
  H     -274.039     -21.040    -697.229
  H     -274.404     -21.903    -695.754

 6  7  8  9  10  11  12  13  14  15  16  26  31  32  33  34  35 0
 6-311+G(2d,p)
 ****
 36  37 0
 6-311+G(2d,p)
 ****
 1  2  3  4  5  17  18  19  20  21  22  23  24  25 0
 3-21G
 ****
 27  28  29  30  38  39  40  41  42  43  44  45 0
 3-21G
 ****


