%nproc=1
%NoSave
%Mem=1900MB
#P OB98/GEN NMR

erre ene a

0 1
  C     -359.607     180.958    -468.760
  O     -360.307     180.904    -469.987
  H     -359.135     181.943    -468.671
  H     -358.829     180.194    -468.755
  H     -360.282     180.803    -467.910
  P     -361.393     179.726    -470.153
  C     -360.127     178.857    -472.259
  O     -360.662     178.550    -470.980
  C     -359.117     177.802    -472.684
  O     -359.796     176.527    -472.812
  C     -358.434     178.095    -474.042
  O     -357.055     177.658    -473.972
  C     -359.185     177.175    -475.000
  O     -358.427     176.869    -476.168
  C     -359.439     175.970    -474.087
  N     -360.585     173.081    -478.041
  C     -359.382     173.678    -477.676
  N     -358.348     173.528    -478.527
  N     -359.231     174.362    -476.573
  C     -360.335     174.423    -475.806
  C     -361.579     173.881    -476.052
  C     -361.755     173.131    -477.282
  O     -362.793     172.611    -477.674
  N     -362.480     174.209    -475.050
  C     -361.780     174.955    -474.225
  N     -360.480     175.111    -474.631
  O     -362.415     180.354    -471.225
  O     -362.084     179.308    -468.899
  H     -357.561     176.554    -475.892
  H     -363.168     180.774    -470.755
  H     -360.655     172.584    -478.906
  H     -362.179     175.421    -473.323
  H     -358.548     175.342    -473.949
  H     -360.130     177.634    -475.315
  H     -358.374     172.990    -479.370
  H     -358.476     179.143    -474.345
  H     -357.442     173.932    -478.246
  H     -358.356     177.681    -471.890
  H     -359.641     179.836    -472.226
  H     -360.960     178.912    -472.990
  P     -355.944     178.761    -473.823
  C     -355.831     179.735    -476.245
  O     -356.211     179.951    -474.875
  O     -354.634     178.051    -474.407
  O     -355.726     179.224    -472.409
  H     -353.837     178.351    -473.912
  H     -356.067     180.605    -476.822
  H     -356.364     178.893    -476.635
  H     -354.779     179.546    -476.298

 6  7  8  9  10  11  12  13  14  15  26  29  33  34 0
 6-311+G(2d,p)
 ****
 36  38  39  40  41 0
 6-311+G(2d,p)
 ****
 1  2  3  4  5  16  17  18  19  20  21  22  23  24  25 0
 3-21G
 ****
 27  28  30  31  32  35  37  42  43  44  45  46  47 0
 3-21G
 ****
 48  49 0
 3-21G
 ****


