%nproc=1
%NoSave
%Mem=1900MB
#P OB98/GEN NMR

erre ene a

0 1
  C      -74.756    -137.828      40.729
  O      -75.202    -138.301      39.452
  P      -75.087    -137.308      38.200
  C      -72.621    -136.555      38.533
  O      -73.554    -137.268      37.736
  C      -71.203    -137.083      38.293
  O      -71.050    -138.439      38.770
  C      -70.803    -137.112      36.824
  O      -70.345    -135.843      36.378
  C      -69.645    -138.097      36.855
  O      -68.449    -137.433      37.311
  C      -70.119    -139.121      37.894
  N      -69.349    -143.613      35.699
  C      -68.441    -142.701      36.203
  N      -67.137    -143.039      36.115
  N      -68.782    -141.560      36.743
  C      -70.120    -141.364      36.779
  C      -71.118    -142.189      36.313
  C      -70.727    -143.441      35.704
  O      -71.485    -144.281      35.229
  N      -72.356    -141.643      36.521
  C      -72.113    -140.499      37.130
  N      -70.769    -140.275      37.295
  O      -75.292    -135.867      38.869
  O      -76.087    -137.562      37.121
  H      -67.774    -138.127      37.433
  H      -75.670    -135.250      38.216
  H      -69.032    -144.474      35.289
  H      -72.870    -139.804      37.470
  H      -69.298    -139.499      38.514
  H      -69.421    -138.508      35.867
  H      -66.807    -143.922      35.757
  H      -71.615    -137.503      36.198
  H      -66.459    -142.398      36.508
  H      -70.503    -136.441      38.843
  H      -72.875    -136.646      39.592
  H      -72.696    -135.489      38.300
  P      -71.231    -135.067      35.289
  C      -73.221    -133.413      35.491
  O      -72.476    -134.456      36.087
  O      -71.865    -136.261      34.433
  O      -70.471    -134.115      34.432
  H      -71.998    -135.976      33.510
  H      -74.115    -133.235      36.093
  H      -73.527    -133.684      34.478
  H      -72.626    -132.495      35.467
  H      -74.894    -138.595      41.462
  H      -75.322    -136.964      41.007
  H      -73.719    -137.572      40.672

 3  4  5  6  7  8  9  10  11  12  23  26  30  31 0
 6-311+G(2d,p)
 ****
 33  35  36  37  38 0
 6-311+G(2d,p)
 ****
 1  2  13  14  15  16  17  18  19  20  21  22  24  25 0
 3-21G
 ****
 27  28  29  32  34  39  40  41  42  43  44  45  46  47  48  49 0
 3-21G
 ****


