%nproc=1
%NoSave
%Mem=1900MB
#P OB98/GEN NMR

erre ene a

0 1
  C     -761.260     872.541      81.251
  O     -759.858     872.349      81.398
  P     -758.839     872.755      80.224
  C     -759.015     870.343      79.361
  O     -759.147     871.721      79.034
  C     -758.605     869.548      78.119
  O     -759.568     869.788      77.071
  C     -757.255     869.923      77.508
  O     -756.134     869.288      78.120
  C     -757.421     869.390      76.093
  O     -757.223     867.965      76.084
  C     -758.885     869.727      75.795
  N     -758.628     872.027      71.231
  C     -758.450     870.745      71.610
  N     -758.515     870.207      72.852
  C     -758.847     871.150      73.746
  C     -759.071     872.495      73.518
  C     -758.957     872.934      72.188
  N     -759.167     874.247      71.805
  N     -759.375     873.153      74.702
  C     -759.349     872.210      75.616
  N     -759.047     870.985      75.091
  O     -757.411     872.848      80.654
  O     -759.417     874.133      79.663
  H     -757.322     867.668      75.158
  H     -758.723     874.594      79.131
  H     -758.215     870.048      70.803
  H     -759.537     872.364      76.670
  H     -759.388     868.944      75.208
  H     -756.707     869.816      75.391
  H     -757.121     871.009      77.470
  H     -758.638     868.481      78.365
  H     -759.993     869.978      79.701
  H     -759.185     874.436      70.808
  H     -759.563     874.879      72.481
  H     -758.302     870.210      80.170
  P     -754.776     870.148      78.243
  C     -754.068     869.951      75.735
  O     -754.524     870.768      76.793
  O     -753.641     869.414      78.840
  O     -755.247     871.414      79.108
  H     -755.870     872.013      78.669
  H     -754.104     870.511      74.804
  H     -754.693     869.056      75.633
  H     -753.029     869.648      75.914
  H     -761.760     872.210      82.137
  H     -761.611     871.978      80.412
  H     -761.463     873.580      81.094

 3  4  5  6  7  8  9  10  11  12  22  25  29  30  31  32 0
 6-311+G(2d,p)
 ****
 33  36  37 0
 6-311+G(2d,p)
 ****
 1  2  13  14  15  16  17  18  19  20  21  23  24  26 0
 3-21G
 ****
 27  28  34  35  38  39  40  41  42  43  44  45  46  47  48 0
 3-21G
 ****


