%nproc=1
%NoSave
%Mem=1900MB
#P OB98/GEN NMR

erre ene a

0 1
  C      379.007    -176.847    -424.057
  O      378.992    -175.899    -422.987
  P      378.671    -176.446    -421.509
  C      380.155    -174.587    -420.410
  O      378.876    -175.197    -420.521
  C      380.206    -173.659    -419.181
  O      379.402    -172.464    -419.439
  C      379.693    -174.294    -417.880
  O      380.530    -173.789    -416.819
  C      378.291    -173.737    -417.769
  O      377.809    -173.773    -416.421
  C      378.495    -172.321    -418.334
  N      377.238    -171.691    -418.752
  C      376.325    -171.389    -417.746
  O      376.491    -171.704    -416.554
  N      375.178    -170.756    -418.145
  C      374.825    -170.484    -419.434
  O      373.782    -169.914    -419.738
  C      375.781    -170.922    -420.462
  C      376.910    -171.517    -420.087
  O      379.943    -177.378    -421.242
  O      377.346    -177.133    -421.418
  H      380.774    -177.027    -421.612
  H      376.986    -173.233    -416.374
  H      374.510    -170.503    -417.425
  H      375.503    -170.788    -421.505
  H      377.631    -171.879    -420.812
  H      378.969    -171.678    -417.589
  H      377.599    -174.307    -418.399
  H      379.731    -175.389    -417.900
  H      381.258    -173.330    -419.063
  H      380.372    -173.996    -421.309
  H      380.923    -175.365    -420.357
  P      381.099    -174.847    -415.751
  C      383.291    -173.571    -415.124
  O      382.016    -174.024    -414.739
  O      382.162    -175.633    -416.655
  O      380.063    -175.745    -415.149
  H      382.732    -175.039    -417.172
  H      383.655    -172.849    -414.398
  H      383.275    -173.093    -416.114
  H      383.995    -174.420    -415.151
  H      379.233    -176.345    -424.975
  H      378.048    -177.315    -424.133
  H      379.752    -177.590    -423.864

 3  4  5  6  7  8  9  10  11  12  13  24  28  29  30  31  32 0
 6-311+G(2d,p)
 ****
 33  34 0
 6-311+G(2d,p)
 ****
 1  2  14  15  16  17  18  19  20  21  22  23  25  26  27 0
 3-21G
 ****
 35  36  37  38  39  40  41  42  43  44  45 0
 3-21G
 ****


