%nproc=1
%NoSave
%Mem=1900MB
#P OB98/GEN NMR

erre ene a

0 1
  C     -183.353     203.939    -273.149
  O     -183.551     203.288    -271.908
  H     -183.538     205.008    -273.011
  H     -184.048     203.551    -273.896
  H     -182.323     203.800    -273.484
  P     -183.363     201.694    -271.896
  C     -181.517     201.883    -270.092
  O     -181.848     201.474    -271.412
  C     -180.129     202.522    -270.065
  O     -180.066     203.614    -270.999
  C     -179.731     203.098    -268.711
  O     -179.210     202.077    -267.871
  C     -178.647     204.084    -269.122
  O     -177.402     203.383    -269.326
  C     -179.169     204.622    -270.465
  N     -179.346     209.461    -272.173
  C     -178.410     208.496    -272.303
  N     -178.402     207.257    -271.774
  C     -179.514     207.034    -271.056
  C     -180.557     207.921    -270.836
  C     -180.450     209.187    -271.434
  N     -181.407     210.171    -271.298
  N     -181.529     207.350    -270.043
  C     -181.110     206.115    -269.841
  N     -179.878     205.889    -270.402
  O     -183.763     200.985    -273.150
  O     -184.204     201.296    -270.592
  H     -177.256     202.835    -268.529
  H     -184.050     201.940    -269.877
  H     -177.544     208.763    -272.911
  H     -181.663     205.347    -269.317
  H     -178.357     204.756    -271.193
  H     -178.463     204.843    -268.364
  H     -180.556     203.643    -268.236
  H     -179.404     201.768    -270.397
  H     -181.541     201.021    -269.413
  H     -181.161     211.101    -271.599
  H     -182.159     210.007    -270.645
  H     -182.275     202.601    -269.765
  P     -180.150     201.301    -266.826
  C     -179.778     198.911    -267.703
  O     -180.680     200.014    -267.617
  O     -181.200     202.152    -266.188
  O     -179.129     200.675    -265.768
  H     -179.608     200.415    -264.955
  H     -180.239     198.115    -268.250
  H     -179.534     198.572    -266.718
  H     -178.885     199.219    -268.205

 6  7  8  9  10  11  12  13  14  15  25  28  32  33  34  35 0
 6-311+G(2d,p)
 ****
 36  39  40 0
 6-311+G(2d,p)
 ****
 1  2  3  4  5  16  17  18  19  20  21  22  23  24 0
 3-21G
 ****
 26  27  29  30  31  37  38  41  42  43  44  45  46  47 0
 3-21G
 ****
 48 0
 3-21G
 ****


