%nproc=1
%NoSave
%Mem=1900MB
#P OB98/GEN NMR

erre ene a

0 1
  C      -24.225     330.420    -395.751
  O      -24.745     331.747    -395.778
  P      -26.237     331.941    -396.331
  C      -25.568     333.636    -398.219
  O      -26.311     333.378    -397.042
  C      -24.874     335.006    -398.144
  O      -25.739     335.996    -398.767
  C      -24.619     335.530    -396.735
  O      -23.627     336.559    -396.800
  C      -25.954     336.148    -396.383
  O      -25.843     337.054    -395.291
  C      -26.396     336.768    -397.724
  N      -27.862     336.746    -397.932
  C      -28.495     337.928    -398.311
  O      -27.908     338.993    -398.468
  N      -29.857     337.864    -398.451
  C      -30.628     336.750    -398.306
  O      -31.850     336.760    -398.356
  C      -29.895     335.501    -398.052
  C      -28.575     335.557    -397.872
  O      -27.113     332.122    -394.999
  O      -26.723     330.813    -397.172
  H      -26.758     337.366    -395.083
  H      -27.626     331.305    -394.826
  H      -30.337     338.729    -398.649
  H      -30.464     334.582    -398.006
  H      -28.022     334.640    -397.662
  H      -26.072     337.809    -397.808
  H      -26.653     335.365    -396.085
  H      -24.313     334.771    -396.017
  H      -23.945     334.977    -398.721
  H      -26.220     333.589    -399.091
  H      -24.812     332.854    -398.350
  P      -22.128     336.195    -396.358
  C      -21.822     338.251    -394.849
  O      -21.404     337.582    -396.024
  O      -21.381     335.268    -397.266
  O      -22.337     335.547    -394.899
  H      -21.553     335.024    -394.656
  H      -20.992     338.830    -394.453
  H      -22.165     337.547    -394.085
  H      -22.644     338.932    -395.103
  H      -23.228     330.435    -395.362
  H      -24.215     330.021    -396.744
  H      -24.842     329.808    -395.127

 3  4  5  6  7  8  9  10  11  12  13  23  28  29  30  31  32 0
 6-311+G(2d,p)
 ****
 33  34 0
 6-311+G(2d,p)
 ****
 1  2  14  15  16  17  18  19  20  21  22  24  25  26  27 0
 3-21G
 ****
 35  36  37  38  39  40  41  42  43  44  45 0
 3-21G
 ****


