%nproc=1
%NoSave
%Mem=1900MB
#P OB98/GEN NMR

erre ene a

0 1
  C       18.523    -108.446     -48.814
  O       18.887    -109.253     -47.715
  H       17.905    -109.038     -49.494
  H       19.416    -108.117     -49.351
  H       17.946    -107.577     -48.486
  P       19.643    -108.576     -46.476
  C       22.027    -109.338     -47.108
  O       21.132    -108.246     -46.966
  C       23.482    -108.867     -47.004
  O       23.802    -108.086     -48.197
  C       23.770    -107.968     -45.785
  O       25.139    -108.186     -45.418
  C       23.572    -106.590     -46.393
  O       24.038    -105.560     -45.560
  C       24.284    -106.805     -47.735
  N       24.049    -105.775     -48.740
  C       24.858    -104.644     -48.707
  O       25.761    -104.453     -47.894
  N       24.596    -103.698     -49.664
  C       23.639    -103.779     -50.632
  O       23.471    -102.913     -51.482
  C       22.811    -104.993     -50.611
  C       23.053    -105.924     -49.685
  O       19.552    -109.310     -45.180
  O       18.974    -107.123     -46.376
  H       18.324    -107.111     -45.648
  H       25.005    -105.668     -45.427
  H       25.175    -102.874     -49.658
  H       22.036    -105.084     -51.358
  H       22.466    -106.835     -49.650
  H       25.362    -106.908     -47.574
  H       22.508    -106.398     -46.541
  H       23.124    -108.184     -44.931
  H       24.140    -109.744     -47.013
  H       21.856    -109.795     -48.088
  H       21.816    -110.079     -46.329
  P       25.615    -109.367     -44.441
  C       25.334    -108.233     -42.131
  O       24.838    -109.204     -43.046
  O       27.097    -109.471     -44.293
  O       25.002    -110.707     -45.068
  H       25.553    -111.469     -44.810
  H       24.727    -108.230     -41.250
  H       25.305    -107.266     -42.587
  H       26.343    -108.473     -41.868

 6  7  8  9  10  11  12  13  14  15  16  27  31  32  33  34  35 0
 6-311+G(2d,p)
 ****
 36  37 0
 6-311+G(2d,p)
 ****
 1  2  3  4  5  17  18  19  20  21  22  23  24  25 0
 3-21G
 ****
 26  28  29  30  38  39  40  41  42  43  44  45 0
 3-21G
 ****


