%nproc=1
%NoSave
%Mem=1900MB
#P OB98/GEN NMR

erre ene a

0 1
  C     -153.611     244.010     245.548
  O     -153.283     244.095     246.938
  P     -152.003     243.314     247.495
  C     -150.366     245.231     248.074
  O     -151.250     244.232     248.571
  C     -149.061     245.224     248.877
  O     -148.039     246.022     248.234
  C     -149.215     245.838     250.264
  O     -149.982     245.110     251.200
  C     -147.779     246.157     250.636
  O     -147.105     245.011     251.162
  C     -147.181     246.555     249.267
  N     -147.016     248.002     249.123
  C     -145.808     248.526     249.574
  O     -144.936     247.848     250.107
  N     -145.654     249.879     249.426
  C     -146.579     250.741     248.913
  O     -146.396     251.948     248.822
  C     -147.844     250.130     248.475
  C     -148.003     248.811     248.597
  O     -151.124     242.691     246.465
  O     -152.662     242.176     248.422
  H     -147.073     244.342     250.454
  H     -152.161     241.349     248.281
  H     -144.780     250.277     249.739
  H     -148.604     250.785     248.069
  H     -148.929     248.341     248.280
  H     -146.197     246.091     249.128
  H     -147.723     246.938     251.401
  H     -149.731     246.801     250.146
  H     -148.694     244.196     248.933
  H     -150.844     246.210     248.136
  H     -150.179     245.044     247.011
  P     -151.156     245.766     252.073
  C     -153.376     244.962     250.999
  O     -152.426     244.785     252.029
  O     -151.411     247.223     251.896
  O     -150.611     245.520     253.568
  H     -150.907     246.262     254.127
  H     -154.172     244.226     251.132
  H     -152.914     244.804     250.021
  H     -153.812     245.963     251.049
  H     -154.490     244.589     245.353
  H     -153.791     242.988     245.286
  H     -152.797     244.389     244.966

 3  4  5  6  7  8  9  10  11  12  13  23  28  29  30  31  32 0
 6-311+G(2d,p)
 ****
 33  34 0
 6-311+G(2d,p)
 ****
 1  2  14  15  16  17  18  19  20  21  22  24  25  26  27 0
 3-21G
 ****
 35  36  37  38  39  40  41  42  43  44  45 0
 3-21G
 ****


