%nproc=1
%NoSave
%Mem=1900MB
#P OB98/GEN NMR

erre ene a

0 1
  C       48.887     264.438    -116.747
  O       47.992     265.326    -116.089
  P       47.078     264.742    -114.907
  C       44.720     263.675    -114.736
  O       45.675     264.317    -115.568
  C       43.709     262.882    -115.563
  O       44.402     261.803    -116.249
  C       42.576     262.248    -114.748
  O       41.407     262.245    -115.578
  C       43.050     260.818    -114.556
  O       41.977     259.930    -114.253
  C       43.728     260.573    -115.902
  N       46.007     256.855    -118.578
  C       45.118     257.804    -118.938
  N       44.556     258.761    -118.169
  C       44.999     258.674    -116.902
  C       45.878     257.738    -116.381
  C       46.398     256.792    -117.283
  N       47.311     255.830    -116.920
  N       46.070     257.951    -115.031
  C       45.322     258.998    -114.743
  N       44.678     259.481    -115.847
  O       46.713     266.056    -114.067
  O       47.725     263.711    -114.050
  H       42.352     259.044    -114.093
  H       47.154     266.026    -113.195
  H       44.821     257.801    -119.982
  H       45.213     259.435    -113.761
  H       43.002     260.349    -116.697
  H       43.771     260.773    -113.734
  H       42.369     262.754    -113.801
  H       43.302     263.544    -116.337
  H       44.183     264.436    -114.165
  H       47.739     255.278    -117.647
  H       47.752     255.892    -116.007
  H       45.235     263.011    -114.030
  P       40.173     263.149    -115.094
  C       38.639     263.213    -113.004
  O       39.701     262.568    -113.680
  O       38.994     262.727    -116.093
  O       40.437     264.619    -115.144
  H       38.368     263.470    -116.200
  H       38.065     262.465    -112.448
  H       37.967     263.732    -113.698
  H       39.053     263.941    -112.297
  H       49.423     264.969    -117.505
  H       48.333     263.640    -117.195
  H       49.578     264.037    -116.036

 3  4  5  6  7  8  9  10  11  12  22  25  29  30  31  32 0
 6-311+G(2d,p)
 ****
 33  36  37 0
 6-311+G(2d,p)
 ****
 1  2  13  14  15  16  17  18  19  20  21  23  24  26 0
 3-21G
 ****
 27  28  34  35  38  39  40  41  42  43  44  45  46  47  48 0
 3-21G
 ****


