%nproc=1
%NoSave
%Mem=1900MB
#P OB98/GEN NMR

erre ene a

0 1
  C      164.741    -462.515     414.729
  O      165.072    -463.838     415.113
  P      165.166    -464.217     416.671
  C      163.683    -466.323     416.633
  O      165.006    -465.804     416.800
  C      163.669    -467.831     416.857
  O      164.182    -468.522     415.693
  C      164.528    -468.303     418.026
  O      163.893    -468.027     419.262
  C      164.701    -469.771     417.697
  O      163.549    -470.525     418.122
  C      164.782    -469.752     416.151
  N      168.722    -472.913     415.445
  C      167.553    -473.070     416.104
  N      166.569    -472.156     416.280
  C      166.899    -470.994     415.710
  C      168.064    -470.678     415.037
  C      169.009    -471.718     414.907
  N      170.180    -471.593     414.169
  N      168.056    -469.351     414.636
  C      166.894    -468.878     415.061
  N      166.134    -469.843     415.664
  O      164.286    -463.414     417.574
  O      166.713    -463.984     417.017
  H      163.651    -471.440     417.775
  H      166.788    -463.297     417.711
  H      167.375    -474.062     416.544
  H      166.562    -467.861     414.944
  H      164.208    -470.566     415.706
  H      165.575    -470.219     418.184
  H      165.512    -467.805     417.987
  H      162.616    -468.143     416.997
  H      163.343    -466.084     415.623
  H      170.690    -472.440     414.008
  H      170.257    -470.815     413.508
  H      163.012    -465.818     417.342
  P      164.530    -466.947     420.259
  C      162.362    -465.841     421.099
  O      163.450    -466.700     421.425
  O      165.064    -465.712     419.622
  O      165.689    -467.754     421.019
  H      166.415    -467.150     421.236
  H      162.701    -464.796     421.149
  H      161.565    -465.998     421.839
  H      161.972    -466.054     420.110
  H      164.725    -462.447     413.661
  H      165.472    -461.837     415.118
  H      163.777    -462.262     415.117

 3  4  5  6  7  8  9  10  11  12  22  25  29  30  31  32 0
 6-311+G(2d,p)
 ****
 33  36  37 0
 6-311+G(2d,p)
 ****
 1  2  13  14  15  16  17  18  19  20  21  23  24  26 0
 3-21G
 ****
 27  28  34  35  38  39  40  41  42  43  44  45  46  47  48 0
 3-21G
 ****


