%nproc=1
%NoSave
%Mem=1900MB
#P OB98/GEN NMR

erre ene a

0 1
  C      324.320     186.459    -469.883
  O      323.635     187.005    -470.987
  H      323.754     185.612    -469.492
  H      324.408     187.213    -469.095
  H      325.322     186.112    -470.175
  P      324.455     187.990    -471.954
  C      324.246     186.358    -473.966
  O      325.117     187.070    -473.092
  C      325.004     185.246    -474.695
  O      325.331     184.202    -473.731
  C      324.223     184.598    -475.852
  O      325.136     184.280    -476.903
  C      323.737     183.300    -475.226
  O      323.444     182.308    -476.217
  C      324.912     182.958    -474.327
  N      326.147     178.434    -472.511
  C      326.819     179.271    -473.394
  N      327.970     178.799    -473.926
  N      326.389     180.455    -473.731
  C      325.237     180.799    -473.114
  C      324.473     180.076    -472.233
  C      324.947     178.753    -471.879
  O      324.395     177.964    -471.126
  N      323.343     180.761    -471.876
  C      323.407     181.902    -472.561
  N      324.543     181.973    -473.326
  O      325.706     188.412    -471.042
  O      323.703     189.182    -472.451
  H      323.270     181.464    -475.759
  H      325.513     189.262    -470.596
  H      326.509     177.521    -472.306
  H      322.664     182.686    -472.558
  H      325.768     182.540    -474.882
  H      322.819     183.486    -474.645
  H      328.381     177.909    -473.694
  H      323.406     185.223    -476.238
  H      328.496     179.418    -474.538
  H      325.961     185.657    -475.056
  H      323.836     187.057    -474.707
  H      323.418     185.937    -473.388
  P      325.518     185.441    -477.948
  C      328.008     185.649    -477.206
  O      326.736     186.280    -477.346
  O      324.282     186.449    -477.829
  O      325.699     184.953    -479.348
  H      324.107     186.858    -478.697
  H      328.707     186.344    -476.791
  H      328.353     185.326    -478.166
  H      327.917     184.804    -476.556

 6  7  8  9  10  11  12  13  14  15  26  29  33  34 0
 6-311+G(2d,p)
 ****
 36  38  39  40  41 0
 6-311+G(2d,p)
 ****
 1  2  3  4  5  16  17  18  19  20  21  22  23  24  25 0
 3-21G
 ****
 27  28  30  31  32  35  37  42  43  44  45  46  47 0
 3-21G
 ****
 48  49 0
 3-21G
 ****


