%nproc=1
%NoSave
%Mem=1900MB
#P OB98/GEN NMR

erre ene a

0 1
  C     -214.393     148.079     -84.899
  O     -213.233     148.354     -85.656
  H     -214.800     149.022     -84.524
  H     -214.150     147.438     -84.048
  H     -215.146     147.596     -85.526
  P     -212.418     147.092     -86.216
  C     -211.533     146.515     -83.841
  O     -212.241     146.071     -84.992
  C     -210.537     145.444     -83.410
  O     -211.214     144.171     -83.272
  C     -209.417     145.197     -84.412
  O     -208.393     146.176     -84.342
  C     -208.936     143.826     -83.973
  O     -207.994     143.912     -82.895
  C     -210.239     143.140     -83.522
  N     -210.708     142.168     -84.506
  C     -209.767     141.225     -84.919
  O     -208.612     141.193     -84.495
  N     -210.189     140.339     -85.870
  C     -211.414     140.335     -86.472
  O     -211.709     139.546     -87.360
  C     -212.360     141.364     -86.009
  C     -211.968     142.223     -85.064
  O     -210.946     147.679     -86.440
  O     -212.974     146.486     -87.462
  H     -210.780     147.793     -87.393
  H     -207.604     143.020     -82.807
  H     -209.525     139.648     -86.181
  H     -213.340     141.388     -86.467
  H     -212.644     142.995     -84.714
  H     -210.085     142.616     -82.569
  H     -208.443     143.306     -84.791
  H     -209.825     145.124     -85.427
  H     -210.125     145.723     -82.432
  H     -212.237     146.695     -83.023
  H     -211.023     147.454     -84.077
  P     -207.793     146.730     -85.723
  C     -205.568     145.369     -85.384
  O     -206.702     145.651     -86.189
  O     -206.939     147.975     -85.195
  O     -208.845     147.060     -86.728
  H     -206.644     147.848     -84.278
  H     -204.965     144.627     -85.865
  H     -205.889     145.005     -84.431
  H     -204.995     146.263     -85.250

 6  7  8  9  10  11  12  13  14  15  16  27  31  32  33  34  35 0
 6-311+G(2d,p)
 ****
 36  37 0
 6-311+G(2d,p)
 ****
 1  2  3  4  5  17  18  19  20  21  22  23  24  25 0
 3-21G
 ****
 26  28  29  30  38  39  40  41  42  43  44  45 0
 3-21G
 ****


