%nproc=1
%NoSave
%Mem=1900MB
#P OB98/GEN NMR

erre ene a

0 1
  C     -404.343     -81.202     810.760
  O     -404.358     -81.697     809.438
  H     -405.358     -80.892     811.028
  H     -403.683     -80.335     810.833
  H     -404.020     -81.975     811.461
  P     -403.030     -82.375     808.851
  C     -403.893     -84.769     809.241
  O     -403.449     -83.817     808.286
  C     -405.205     -85.397     808.776
  O     -406.271     -84.419     808.842
  C     -405.182     -85.875     807.331
  O     -404.455     -87.082     807.192
  C     -406.669     -85.974     807.039
  O     -407.212     -87.208     807.527
  C     -407.237     -84.775     807.828
  N     -407.534     -83.636     806.956
  C     -408.871     -83.266     806.859
  O     -409.778     -83.835     807.463
  N     -409.144     -82.247     805.987
  C     -408.251     -81.681     805.122
  O     -408.584     -80.953     804.193
  C     -406.845     -82.063     805.312
  C     -406.554     -83.022     806.199
  O     -401.845     -82.369     809.762
  O     -402.741     -81.537     807.515
  H     -402.024     -80.899     807.686
  H     -406.705     -87.916     807.081
  H     -410.118     -82.004     805.878
  H     -406.096     -81.585     804.697
  H     -405.527     -83.346     806.336
  H     -408.158     -85.063     808.351
  H     -406.873     -85.927     805.965
  H     -404.746     -85.098     806.693
  H     -405.457     -86.223     809.457
  H     -404.053     -84.262     810.201
  H     -403.122     -85.536     809.367
  P     -403.910     -87.535     805.758
  C     -401.845     -86.038     805.440
  O     -402.317     -87.344     805.744
  O     -404.623     -86.941     804.589
  O     -404.071     -89.130     805.768
  H     -404.530     -89.404     804.951
  H     -400.775     -86.032     805.460
  H     -402.219     -85.346     806.165
  H     -402.185     -85.753     804.466

 6  7  8  9  10  11  12  13  14  15  16  27  31  32  33  34  35 0
 6-311+G(2d,p)
 ****
 36  37 0
 6-311+G(2d,p)
 ****
 1  2  3  4  5  17  18  19  20  21  22  23  24  25 0
 3-21G
 ****
 26  28  29  30  38  39  40  41  42  43  44  45 0
 3-21G
 ****


