%nproc=1
%NoSave
%Mem=1900MB
#P OB98/GEN NMR

erre ene a

0 1
  C      131.645    -274.022    -298.758
  O      130.256    -274.136    -298.558
  H      131.824    -273.267    -299.529
  H      132.061    -274.972    -299.105
  H      132.143    -273.708    -297.837
  P      129.696    -275.211    -297.505
  C      128.827    -276.838    -299.290
  O      129.786    -276.632    -298.261
  C      128.839    -278.290    -299.768
  O      130.116    -278.583    -300.398
  C      128.635    -279.317    -298.641
  O      127.666    -280.287    -299.043
  C      129.999    -279.979    -298.513
  O      129.931    -281.287    -297.953
  C      130.497    -279.900    -299.958
  N      131.932    -280.125    -300.056
  C      132.331    -281.429    -300.366
  O      131.488    -282.310    -300.545
  N      133.670    -281.719    -300.411
  C      134.536    -280.797    -300.123
  N      135.846    -281.155    -300.159
  C      134.159    -279.414    -299.765
  C      132.853    -279.149    -299.755
  O      128.359    -274.885    -296.931
  O      130.842    -275.331    -296.396
  H      130.817    -281.702    -298.017
  H      130.446    -275.681    -295.563
  H      134.918    -278.685    -299.528
  H      132.479    -278.163    -299.502
  H      129.982    -280.633    -300.593
  H      130.638    -279.365    -297.863
  H      128.321    -278.863    -297.702
  H      128.078    -278.405    -300.550
  H      136.062    -282.117    -300.403
  H      129.052    -276.160    -300.119
  H      136.608    -280.534    -299.933
  H      127.836    -276.605    -298.890
  P      126.140    -279.958    -298.667
  C      126.042    -281.680    -296.724
  O      125.924    -280.321    -297.117
  O      125.320    -281.090    -299.444
  O      125.709    -278.590    -299.066
  H      124.822    -280.688    -300.184
  H      125.873    -281.763    -295.671
  H      127.024    -282.034    -296.956
  H      125.318    -282.267    -297.249

 6  7  8  9  10  11  12  13  14  15  16  26  30  31  32  33  35 0
 6-311+G(2d,p)
 ****
 37  38 0
 6-311+G(2d,p)
 ****
 1  2  3  4  5  17  18  19  20  21  22  23  24  25 0
 3-21G
 ****
 27  28  29  34  36  39  40  41  42  43  44  45  46 0
 3-21G
 ****


