%nproc=1
%NoSave
%Mem=1900MB
#P OB98/GEN NMR

erre ene a

0 1
  C      181.304     -11.499       3.502
  O      180.932     -10.896       4.740
  P      181.422      -9.399       5.038
  C      179.063      -8.378       4.814
  O      180.403      -8.378       4.334
  C      178.140      -7.629       3.838
  O      178.068      -8.375       2.594
  C      176.691      -7.472       4.312
  O      176.355      -6.327       5.090
  C      175.957      -7.325       2.981
  O      176.030      -5.958       2.533
  C      176.749      -8.217       2.031
  N      173.681     -10.963      -1.006
  C      174.111      -9.685      -1.075
  N      174.927      -9.029      -0.224
  C      175.317      -9.834       0.776
  C      174.963     -11.157       0.976
  C      174.099     -11.729       0.028
  N      173.651     -13.027       0.104
  N      175.554     -11.653       2.120
  C      176.238     -10.638       2.610
  N      176.138      -9.521       1.829
  O      182.869      -9.127       4.803
  O      181.058      -9.221       6.591
  H      175.372      -5.865       1.819
  H      181.757      -8.692       7.021
  H      173.751      -9.111      -1.925
  H      176.815     -10.667       3.523
  H      176.871      -7.767       1.039
  H      174.894      -7.571       3.061
  H      176.348      -8.377       4.825
  H      178.571      -6.644       3.620
  H      179.027      -7.899       5.795
  H      172.997     -13.346      -0.593
  H      173.906     -13.594       0.900
  H      178.766      -9.417       4.958
  P      176.314      -6.386       6.689
  C      178.562      -5.071       6.929
  O      177.840      -6.259       7.164
  O      175.583      -7.551       7.261
  O      175.698      -4.962       7.075
  H      176.280      -4.208       6.885
  H      179.489      -5.104       7.507
  H      177.985      -4.197       7.238
  H      178.813      -4.995       5.867
  H      180.904     -12.490       3.454
  H      182.371     -11.541       3.432
  H      180.916     -10.918       2.692

 3  4  5  6  7  8  9  10  11  12  22  25  29  30  31  32 0
 6-311+G(2d,p)
 ****
 33  36  37 0
 6-311+G(2d,p)
 ****
 1  2  13  14  15  16  17  18  19  20  21  23  24  26 0
 3-21G
 ****
 27  28  34  35  38  39  40  41  42  43  44  45  46  47  48 0
 3-21G
 ****


