%nproc=1
%NoSave
%Mem=1900MB
#P OB98/GEN NMR

erre ene a

0 1
  C     -820.232    -925.905    1380.690
  O     -820.205    -925.469    1382.046
  P     -821.476    -925.166    1382.948
  C     -821.351    -922.519    1383.076
  O     -821.240    -923.790    1383.719
  C     -820.736    -921.404    1383.923
  O     -821.601    -921.101    1385.040
  C     -819.369    -921.789    1384.519
  O     -818.394    -920.765    1384.455
  C     -819.725    -922.316    1385.910
  O     -818.653    -922.336    1386.816
  C     -820.915    -921.404    1386.259
  N     -823.191    -921.017    1390.841
  C     -822.193    -920.225    1390.280
  N     -821.749    -919.193    1391.045
  N     -821.694    -920.416    1389.077
  C     -822.174    -921.526    1388.475
  C     -823.139    -922.390    1388.937
  C     -823.734    -922.129    1390.221
  O     -824.605    -922.810    1390.785
  N     -823.376    -923.408    1388.018
  C     -822.562    -923.145    1387.031
  N     -821.807    -922.002    1387.263
  O     -822.003    -926.305    1383.741
  O     -822.625    -924.749    1381.868
  H     -818.967    -922.770    1387.641
  H     -823.476    -925.044    1382.241
  H     -823.559    -920.815    1391.741
  H     -822.473    -923.730    1386.120
  H     -820.591    -920.465    1386.728
  H     -820.081    -923.360    1385.783
  H     -821.999    -919.056    1391.999
  H     -818.901    -922.606    1383.934
  H     -820.869    -918.760    1390.714
  H     -820.648    -920.496    1383.290
  H     -822.428    -922.347    1382.949
  H     -820.889    -922.579    1382.072
  P     -817.159    -920.584    1383.437
  C     -815.108    -920.685    1384.966
  O     -815.976    -919.837    1384.154
  O     -817.683    -919.489    1382.352
  O     -816.773    -921.860    1382.714
  H     -817.716    -919.889    1381.479
  H     -814.490    -920.030    1385.606
  H     -814.438    -921.234    1384.290
  H     -815.683    -921.368    1385.584
  H     -819.230    -926.029    1380.335
  H     -820.735    -925.175    1380.091
  H     -820.751    -926.838    1380.626

 3  4  5  6  7  8  9  10  11  12  23  26  30  31 0
 6-311+G(2d,p)
 ****
 33  35  36  37  38 0
 6-311+G(2d,p)
 ****
 1  2  13  14  15  16  17  18  19  20  21  22  24  25 0
 3-21G
 ****
 27  28  29  32  34  39  40  41  42  43  44  45  46  47  48  49 0
 3-21G
 ****


