%nproc=1
%NoSave
%Mem=1900MB
#P OB98/GEN NMR

erre ene a

0 1
  C      -65.267    -985.795     216.964
  O      -63.951    -985.786     216.452
  H      -65.446    -986.753     217.457
  H      -65.993    -985.689     216.145
  H      -65.407    -984.992     217.683
  P      -63.446    -984.482     215.668
  C      -62.077    -983.627     217.690
  O      -63.181    -983.402     216.829
  C      -60.955    -982.639     217.386
  O      -61.464    -981.285     217.273
  C      -59.860    -982.548     218.450
  O      -58.990    -983.672     218.474
  C      -59.162    -981.284     218.007
  O      -58.350    -981.562     216.852
  C      -60.374    -980.390     217.643
  N      -60.778    -979.515     218.747
  C      -59.902    -978.474     219.078
  O      -58.853    -978.331     218.469
  N      -60.233    -977.645     220.116
  C      -61.329    -977.842     220.792
  N      -61.590    -976.986     221.812
  C      -62.258    -978.942     220.491
  C      -61.930    -979.728     219.466
  O      -64.307    -984.020     214.546
  O      -61.947    -984.841     215.214
  H      -57.841    -980.760     216.654
  H      -61.593    -984.070     214.715
  H      -63.145    -979.083     221.098
  H      -62.572    -980.557     219.184
  H      -60.151    -979.774     216.764
  H      -58.501    -980.862     218.767
  H      -60.304    -982.386     219.450
  H      -60.539    -982.913     216.405
  H      -60.922    -976.251     222.000
  H      -61.740    -984.655     217.558
  H      -62.378    -977.122     222.435
  H      -62.384    -983.486     218.738
  P      -58.532    -984.221     219.915
  C      -59.938    -986.384     219.497
  O      -59.644    -985.291     220.354
  O      -58.811    -982.968     220.869
  O      -57.127    -984.709     219.993
  H      -57.980    -982.477     221.038
  H      -60.697    -986.993     219.943
  H      -59.054    -986.968     219.348
  H      -60.285    -986.015     218.554

 6  7  8  9  10  11  12  13  14  15  16  26  30  31  32  33  35 0
 6-311+G(2d,p)
 ****
 37  38 0
 6-311+G(2d,p)
 ****
 1  2  3  4  5  17  18  19  20  21  22  23  24  25 0
 3-21G
 ****
 27  28  29  34  36  39  40  41  42  43  44  45  46 0
 3-21G
 ****


