%nproc=1
%NoSave
%Mem=1900MB
#P OB98/GEN NMR

erre ene a

0 1
  C      -17.454    -209.429     201.798
  O      -16.539    -209.597     200.730
  P      -14.986    -209.864     201.016
  C      -14.657    -207.337     201.283
  O      -14.185    -208.515     200.647
  C      -14.305    -206.093     200.464
  O      -14.906    -204.922     201.101
  C      -12.804    -205.814     200.326
  O      -12.606    -205.228     199.029
  C      -12.551    -204.762     201.399
  O      -11.361    -204.017     201.171
  C      -13.845    -203.960     201.303
  N      -12.214    -200.093     204.222
  C      -11.693    -200.663     203.120
  N      -12.174    -201.708     202.415
  C      -13.323    -202.164     202.958
  C      -13.959    -201.703     204.098
  C      -13.364    -200.597     204.745
  N      -13.901    -199.983     205.850
  N      -15.080    -202.468     204.365
  C      -15.112    -203.372     203.406
  N      -14.103    -203.183     202.499
  O      -14.428    -211.107     200.398
  O      -14.892    -209.919     202.613
  H      -11.412    -203.629     200.276
  H      -14.762    -210.845     202.908
  H      -10.773    -200.220     202.750
  H      -15.832    -204.169     203.321
  H      -13.840    -203.276     200.443
  H      -12.457    -205.260     202.375
  H      -12.173    -206.706     200.446
  H      -14.775    -206.192     199.471
  H      -14.181    -207.267     202.268
  H      -13.469    -199.121     206.148
  H      -14.872    -200.163     206.095
  H      -15.745    -207.399     201.428
  P      -12.097    -206.136     197.809
  C      -10.334    -204.498     196.919
  O      -11.580    -205.132     196.672
  O      -13.052    -207.186     197.346
  O      -10.729    -206.776     198.364
  H      -10.486    -207.554     197.817
  H      -10.481    -203.647     197.602
  H       -9.925    -204.128     195.978
  H       -9.619    -205.198     197.368
  H      -18.435    -209.262     201.404
  H      -17.160    -208.588     202.391
  H      -17.459    -210.310     202.406

 3  4  5  6  7  8  9  10  11  12  22  25  29  30  31  32 0
 6-311+G(2d,p)
 ****
 33  36  37 0
 6-311+G(2d,p)
 ****
 1  2  13  14  15  16  17  18  19  20  21  23  24  26 0
 3-21G
 ****
 27  28  34  35  38  39  40  41  42  43  44  45  46  47  48 0
 3-21G
 ****


