%nproc=1
%NoSave
%Mem=1900MB
#P OB98/GEN NMR

erre ene a

0 1
  C      193.056     164.863     -29.506
  O      192.036     164.640     -30.470
  P      190.654     164.005     -29.950
  C      188.343     163.671     -31.079
  O      189.555     164.414     -31.045
  C      187.285     164.409     -31.890
  O      186.692     165.448     -31.088
  C      187.815     165.109     -33.132
  O      187.973     164.210     -34.220
  C      186.699     166.106     -33.406
  O      185.626     165.453     -34.110
  C      186.249     166.494     -31.988
  N      185.509     171.496     -31.719
  C      184.705     170.509     -32.257
  N      183.522     170.912     -32.771
  N      185.031     169.245     -32.288
  C      186.223     168.985     -31.701
  C      187.108     169.876     -31.136
  C      186.757     171.279     -31.154
  O      187.459     172.204     -30.752
  N      188.207     169.232     -30.628
  C      187.971     167.955     -30.850
  N      186.793     167.756     -31.526
  O      190.284     164.925     -28.695
  O      190.717     162.563     -29.584
  H      186.025     164.993     -34.874
  H      189.715     164.428     -28.075
  H      185.200     172.452     -31.706
  H      188.621     167.147     -30.540
  H      185.157     166.539     -31.914
  H      187.020     166.949     -34.025
  H      183.161     171.846     -32.660
  H      188.743     165.647     -32.918
  H      182.905     170.198     -33.136
  H      186.496     163.693     -32.156
  H      187.975     163.534     -30.057
  H      188.544     162.687     -31.514
  P      188.662     164.802     -35.547
  C      189.330     163.771     -37.835
  O      188.763     163.562     -36.556
  O      190.173     165.056     -35.092
  O      188.014     166.036     -36.076
  H      190.576     165.761     -35.636
  H      190.154     164.488     -37.796
  H      188.559     164.139     -38.519
  H      189.712     162.819     -38.211
  H      193.914     165.286     -29.986
  H      193.325     163.933     -29.049
  H      192.697     165.538     -28.757

 3  4  5  6  7  8  9  10  11  12  23  26  30  31  33  0
 6-311+G(2d,p)
 ****
 35  36  37  38 0
 6-311+G(2d,p)
 ****
 1  2  13  14  15  16  17  18  19  20  21  22  24  25  27  28  29 0
 3-21G
 ****
 32  34  39  40  41  42  43  44  45  46  47  48  49 0
 3-21G
 ****


