%nproc=1
%NoSave
%Mem=1900MB
#P OB98/GEN NMR

erre ene a

0 1
  C      216.258    -394.398     202.495
  O      215.975    -394.107     203.847
  H      215.349    -394.234     201.902
  H      216.549    -395.445     202.390
  H      217.050    -393.749     202.115
  P      217.167    -394.138     204.915
  C      216.925    -396.627     205.541
  O      217.744    -395.634     204.947
  C      217.673    -397.348     206.670
  O      216.747    -398.241     207.345
  C      218.861    -398.182     206.189
  O      219.919    -398.086     207.147
  C      218.316    -399.592     206.155
  O      219.341    -400.573     206.314
  C      217.310    -399.567     207.310
  N      213.767    -402.280     209.692
  C      214.594    -401.271     210.167
  N      214.469    -400.956     211.478
  N      215.460    -400.642     209.429
  C      215.459    -401.047     208.133
  C      214.694    -402.020     207.537
  C      213.748    -402.727     208.378
  O      213.003    -403.634     208.016
  N      215.001    -402.151     206.206
  C      215.950    -401.260     205.997
  N      216.269    -400.571     207.136
  O      216.821    -393.571     206.261
  O      218.343    -393.309     204.221
  H      219.812    -400.368     207.148
  H      218.431    -392.417     204.617
  H      213.123    -402.733     210.310
  H      216.432    -401.078     205.048
  H      217.790    -399.762     208.282
  H      217.813    -399.773     205.196
  H      213.803    -401.389     212.100
  H      219.229    -397.850     205.214
  H      215.047    -400.207     211.851
  H      217.985    -396.601     207.410
  H      216.645    -397.350     204.770
  H      216.015    -396.154     205.936
  P      221.263    -397.310     206.758
  C      222.470    -399.387     205.812
  O      221.977    -398.082     205.534
  O      222.172    -396.983     207.899
  O      220.717    -395.979     206.059
  H      221.325    -395.242     206.268
  H      222.919    -399.794     204.930
  H      221.661    -400.015     206.123
  H      223.201    -399.334     206.592

 6  7  8  9  10  11  12  13  14  15  26  29  33  34 0
 6-311+G(2d,p)
 ****
 36  38  39  40  41 0
 6-311+G(2d,p)
 ****
 1  2  3  4  5  16  17  18  19  20  21  22  23  24  25 0
 3-21G
 ****
 27  28  30  31  32  35  37  42  43  44  45  46  47 0
 3-21G
 ****
 48  49 0
 3-21G
 ****


