%nproc=1
%NoSave
%Mem=1900MB
#P OB98/GEN NMR

erre ene a

0 1
  C      -18.617     230.420    -142.783
  O      -17.922     229.294    -143.334
  P      -16.917     228.398    -142.460
  C      -14.868     228.209    -144.009
  O      -15.996     227.539    -143.453
  C      -13.993     227.260    -144.833
  O      -13.410     226.244    -143.994
  C      -14.735     226.518    -145.941
  O      -14.931     227.358    -147.061
  C      -13.804     225.332    -146.179
  O      -12.706     225.718    -147.023
  C      -13.307     225.029    -144.760
  N      -14.035     219.970    -144.584
  C      -13.196     220.737    -145.314
  N      -13.065     222.081    -145.308
  C      -13.901     222.633    -144.413
  C      -14.816     221.981    -143.603
  C      -14.870     220.580    -143.711
  N      -15.735     219.803    -142.978
  N      -15.519     222.883    -142.833
  C      -15.024     224.060    -143.161
  N      -14.046     223.961    -144.112
  O      -17.584     227.593    -141.393
  O      -15.892     229.448    -141.818
  H      -13.077     226.217    -147.774
  H      -15.551     229.099    -140.974
  H      -12.543     220.199    -145.997
  H      -15.338     225.006    -142.738
  H      -12.248     224.745    -144.755
  H      -14.308     224.490    -146.662
  H      -15.698     226.152    -145.566
  H      -13.167     227.847    -145.255
  H      -14.278     228.632    -143.188
  H      -15.735     218.808    -143.137
  H      -16.394     220.254    -142.359
  H      -15.227     229.029    -144.642
  P      -16.355     228.047    -147.310
  C      -17.016     226.117    -148.866
  O      -16.893     227.520    -148.725
  O      -16.398     229.526    -147.124
  O      -17.322     227.303    -146.269
  H      -18.035     227.912    -146.002
  H      -16.034     225.687    -149.079
  H      -17.686     225.906    -149.703
  H      -17.426     225.666    -147.958
  H      -19.228     230.867    -143.539
  H      -17.908     231.138    -142.428
  H      -19.234     230.096    -141.971

 3  4  5  6  7  8  9  10  11  12  22  25  29  30  31  32 0
 6-311+G(2d,p)
 ****
 33  36  37 0
 6-311+G(2d,p)
 ****
 1  2  13  14  15  16  17  18  19  20  21  23  24  26 0
 3-21G
 ****
 27  28  34  35  38  39  40  41  42  43  44  45  46  47  48 0
 3-21G
 ****


