%nproc=1
%NoSave
%Mem=1900MB
#P OB98/GEN NMR

erre ene a

0 1
  C      -53.475     -10.160      96.080
  O      -52.423     -10.249      97.046
  P      -52.389      -9.264      98.313
  C      -53.609     -10.852      99.910
  O      -52.397     -10.146      99.658
  C      -53.415     -12.102     100.779
  O      -52.573     -13.075     100.109
  C      -52.792     -11.841     102.156
  O      -53.379     -12.803     103.038
  C      -51.328     -12.149     101.913
  O      -50.611     -12.394     103.117
  C      -51.437     -13.343     100.953
  N      -50.218     -13.544     100.176
  C      -49.150     -14.167     100.823
  O      -49.237     -14.471     102.015
  N      -47.988     -14.390     100.123
  C      -47.875     -13.937      98.912
  N      -46.693     -14.166      98.275
  C      -48.947     -13.197      98.218
  C      -50.083     -13.049      98.899
  O      -53.407      -8.171      98.282
  O      -50.907      -8.653      98.285
  H      -51.007     -13.176     103.555
  H      -50.921      -7.753      98.666
  H      -48.795     -12.816      97.219
  H      -50.930     -12.524      98.476
  H      -51.649     -14.267     101.509
  H      -50.850     -11.300     101.406
  H      -52.958     -10.825     102.521
  H      -54.400     -12.570     100.900
  H      -45.973     -14.654      98.796
  H      -54.043     -11.149      98.948
  H      -46.458     -13.761      97.383
  H      -54.323     -10.174     100.388
  P      -54.627     -12.446     103.976
  C      -56.295     -13.663     102.463
  O      -55.718     -13.599     103.754
  O      -55.152     -11.054     103.821
  O      -54.109     -12.711     105.471
  H      -54.703     -12.257     106.100
  H      -56.850     -14.601     102.368
  H      -55.524     -13.629     101.688
  H      -56.984     -12.825     102.324
  H      -53.322     -10.895      95.317
  H      -53.474      -9.184      95.641
  H      -54.415     -10.334      96.560

 3  4  5  6  7  8  9  10  11  12  13  23  27  28  29  30  32 0
 6-311+G(2d,p)
 ****
 34  35 0
 6-311+G(2d,p)
 ****
 1  2  14  15  16  17  18  19  20  21  22  24  25  26 0
 3-21G
 ****
 31  33  36  37  38  39  40  41  42  43  44  45  46 0
 3-21G
 ****


