%nproc=1
%NoSave
%Mem=1900MB
#P OB98/GEN NMR

erre ene a

0 1
  C     -601.906     164.889    -252.771
  O     -600.522     164.549    -252.874
  P     -599.474     165.448    -252.054
  C     -598.267     167.714    -252.420
  O     -599.164     166.753    -252.943
  C     -597.204     168.107    -253.446
  O     -596.322     166.966    -253.682
  C     -597.764     168.523    -254.814
  O     -596.888     169.523    -255.355
  C     -597.636     167.259    -255.647
  O     -597.655     167.524    -257.039
  C     -596.328     166.704    -255.104
  N     -595.240     163.154    -258.629
  C     -595.272     164.497    -258.698
  N     -595.568     165.370    -257.704
  C     -595.848     164.736    -256.565
  C     -595.900     163.368    -256.354
  C     -595.570     162.543    -257.445
  N     -595.528     161.176    -257.381
  N     -596.266     163.082    -255.052
  C     -596.435     164.267    -254.479
  N     -596.182     165.291    -255.355
  O     -598.122     164.593    -252.163
  O     -599.827     165.716    -250.623
  H     -598.540     167.883    -257.279
  H     -597.886     164.222    -251.285
  H     -595.022     164.924    -259.657
  H     -596.750     164.425    -253.453
  H     -595.454     167.213    -255.540
  H     -598.477     166.580    -255.414
  H     -598.800     168.907    -254.772
  H     -596.586     168.912    -253.028
  H     -597.761     167.283    -251.547
  H     -595.135     160.671    -258.169
  H     -595.576     160.732    -256.479
  H     -598.821     168.597    -252.086
  P     -597.573     170.782    -256.086
  C     -598.573     171.159    -258.453
  O     -598.200     170.228    -257.457
  O     -596.310     171.655    -256.570
  O     -598.498     171.576    -255.213
  H     -596.567     172.598    -256.632
  H     -598.413     170.701    -259.434
  H     -597.977     172.086    -258.385
  H     -599.630     171.403    -258.353
  H     -602.485     164.212    -253.364
  H     -602.055     165.888    -253.123
  H     -602.215     164.821    -251.749

 3  4  5  6  7  8  9  10  11  12  22  25  29  30  31  32 0
 6-311+G(2d,p)
 ****
 33  36  37 0
 6-311+G(2d,p)
 ****
 1  2  13  14  15  16  17  18  19  20  21  23  24  26 0
 3-21G
 ****
 27  28  34  35  38  39  40  41  42  43  44  45  46  47  48 0
 3-21G
 ****


