%nproc=1
%NoSave
%Mem=1900MB
#P OB98/GEN NMR

erre ene a

0 1
  C      259.111      62.452      57.086
  O      258.097      61.924      56.254
  H      259.249      63.509      56.846
  H      260.053      61.925      56.912
  H      258.822      62.361      58.136
  P      257.789      60.358      56.415
  C      258.683      59.986      54.011
  O      257.619      59.777      54.928
  C      258.396      59.276      52.691
  O      259.473      59.490      51.752
  C      258.215      57.768      52.814
  O      256.887      57.447      53.195
  C      258.546      57.313      51.400
  O      257.422      57.508      50.515
  C      259.702      58.252      51.024
  N      264.542      58.321      49.592
  C      263.433      58.903      49.013
  N      263.636      59.582      47.861
  N      262.225      58.817      49.506
  C      262.161      58.059      50.626
  C      263.186      57.431      51.296
  C      264.524      57.580      50.768
  O      265.556      57.160      51.280
  N      262.721      56.773      52.406
  C      261.417      56.975      52.386
  N      261.028      57.746      51.322
  O      256.294      60.329      56.993
  O      258.723      59.609      57.303
  H      256.702      56.909      50.779
  H      256.224      59.603      57.642
  H      265.451      58.445      49.184
  H      260.718      56.597      53.120
  H      259.695      58.500      49.956
  H      258.784      56.249      51.365
  H      264.459      59.439      47.294
  H      258.941      57.338      53.514
  H      262.812      59.943      47.399
  H      257.499      59.737      52.258
  H      259.607      59.588      54.445
  H      258.802      61.060      53.836
  P      256.672      56.494      54.465
  C      257.180      54.131      53.518
  O      256.188      55.060      53.931
  O      255.359      57.104      55.150
  O      257.815      56.469      55.425
  H      255.605      57.599      55.954
  H      256.709      53.228      53.190
  H      257.831      53.916      54.339
  H      257.748      54.549      52.713

 6  7  8  9  10  11  12  13  14  15  26  29  33  34 0
 6-311+G(2d,p)
 ****
 36  38  39  40  41 0
 6-311+G(2d,p)
 ****
 1  2  3  4  5  16  17  18  19  20  21  22  23  24  25 0
 3-21G
 ****
 27  28  30  31  32  35  37  42  43  44  45  46  47 0
 3-21G
 ****
 48  49 0
 3-21G
 ****


