%nproc=1
%NoSave
%Mem=1900MB
#P OB98/GEN NMR

erre ene a

0 1
  C      260.859     535.195    -270.020
  O      261.335     533.862    -269.965
  H      260.364     535.350    -270.985
  H      261.704     535.881    -269.949
  H      260.142     535.384    -269.216
  P      261.819     533.319    -268.542
  C      264.131     532.343    -269.183
  O      262.794     532.065    -268.823
  C      264.430     531.793    -270.582
  O      263.813     530.478    -270.714
  C      263.891     532.677    -271.734
  O      264.829     532.668    -272.795
  C      262.618     531.960    -272.155
  O      262.267     532.240    -273.515
  C      262.994     530.511    -271.895
  N      259.919     527.246    -274.226
  C      261.098     527.843    -274.660
  N      261.511     527.510    -275.903
  N      261.807     528.679    -273.931
  C      261.289     528.863    -272.699
  C      260.134     528.350    -272.148
  C      259.351     527.450    -272.979
  O      258.284     526.918    -272.647
  N      259.936     528.812    -270.874
  C      260.965     529.623    -270.645
  N      261.821     529.681    -271.733
  O      260.499     532.639    -267.946
  O      262.368     534.356    -267.613
  H      262.954     531.822    -274.088
  H      260.215     533.121    -267.143
  H      259.416     526.627    -274.820
  H      261.128     530.178    -269.738
  H      263.574     530.067    -272.726
  H      261.785     532.267    -271.511
  H      261.040     526.847    -276.508
  H      263.699     533.710    -271.417
  H      262.384     527.907    -276.236
  H      265.511     531.643    -270.674
  H      264.807     531.881    -268.468
  H      264.292     533.436    -269.169
  P      265.733     533.991    -272.982
  C      265.358     533.972    -275.545
  O      266.300     534.003    -274.498
  O      267.027     533.683    -272.091
  O      265.057     535.247    -272.552
  H      267.019     534.233    -271.295
  H      265.869     533.984    -276.485
  H      264.719     534.827    -275.475
  H      264.770     533.081    -275.470

 6  7  8  9  10  11  12  13  14  15  26  29  33  34 0
 6-311+G(2d,p)
 ****
 36  38  39  40  41 0
 6-311+G(2d,p)
 ****
 1  2  3  4  5  16  17  18  19  20  21  22  23  24  25 0
 3-21G
 ****
 27  28  30  31  32  35  37  42  43  44  45  46  47 0
 3-21G
 ****
 48  49 0
 3-21G
 ****


