%nproc=1
%NoSave
%Mem=1900MB
#P OB98/GEN NMR

erre ene a

0 1
  C     -288.359    -476.540    -207.477
  O     -288.421    -475.278    -206.790
  P     -287.066    -474.629    -206.218
  C     -285.167    -473.530    -207.648
  O     -286.538    -473.537    -207.267
  C     -284.889    -472.361    -208.601
  O     -285.709    -472.464    -209.789
  C     -285.206    -470.988    -208.018
  O     -284.207    -470.557    -207.106
  C     -285.287    -470.137    -209.282
  O     -283.977    -469.732    -209.713
  C     -285.908    -471.124    -210.288
  N     -287.323    -470.857    -210.546
  C     -287.671    -470.575    -211.862
  O     -286.854    -470.500    -212.776
  N     -289.007    -470.355    -212.095
  C     -289.989    -470.319    -211.140
  O     -291.168    -470.093    -211.409
  C     -289.548    -470.540    -209.760
  C     -288.256    -470.788    -209.526
  O     -286.015    -475.822    -206.426
  O     -287.105    -474.203    -204.787
  H     -283.654    -469.085    -209.057
  H     -285.302    -475.756    -205.759
  H     -289.285    -470.183    -213.045
  H     -290.294    -470.498    -208.972
  H     -287.911    -470.958    -208.507
  H     -285.370    -471.077    -211.245
  H     -285.874    -469.222    -209.134
  H     -286.193    -471.012    -207.533
  H     -283.831    -472.415    -208.908
  H     -284.931    -474.471    -208.161
  H     -284.544    -473.455    -206.752
  P     -284.150    -471.313    -205.690
  C     -282.240    -472.915    -204.861
  O     -283.120    -472.529    -205.901
  O     -285.600    -471.993    -205.650
  O     -283.862    -470.395    -204.542
  H     -285.902    -472.263    -206.535
  H     -282.696    -472.763    -203.878
  H     -281.325    -472.317    -204.933
  H     -281.992    -473.965    -204.978
  H     -289.342    -476.825    -207.789
  H     -287.964    -477.285    -206.819
  H     -287.725    -476.449    -208.334

 3  4  5  6  7  8  9  10  11  12  13  23  28  29  30  31  32 0
 6-311+G(2d,p)
 ****
 33  34 0
 6-311+G(2d,p)
 ****
 1  2  14  15  16  17  18  19  20  21  22  24  25  26 0
 3-21G
 ****
 27  35  36  37  38  39  40  41  42  43  44  45 0
 3-21G
 ****


