%nproc=1
%NoSave
%Mem=1900MB
#P OB98/GEN NMR

erre ene a

0 1
  C     -201.209    -162.517     -92.001
  O     -201.945    -163.066     -93.072
  H     -200.481    -163.263     -91.663
  H     -201.869    -162.278     -91.165
  H     -200.668    -161.622     -92.324
  P     -203.120    -162.199     -93.741
  C     -204.745    -163.282     -92.072
  O     -204.248    -162.058     -92.596
  C     -206.256    -163.210     -91.843
  O     -206.931    -163.020     -93.117
  C     -206.845    -164.470     -91.191
  O     -207.717    -164.096     -90.120
  C     -207.654    -165.107     -92.310
  O     -208.702    -165.945     -91.833
  C     -208.096    -163.863     -93.090
  N     -208.577    -164.196     -94.425
  C     -209.726    -164.991     -94.485
  O     -210.278    -165.369     -93.449
  N     -210.188    -165.389     -95.714
  C     -209.534    -165.059     -96.784
  N     -210.035    -165.512     -97.968
  C     -208.305    -164.246     -96.765
  C     -207.885    -163.849     -95.562
  O     -203.612    -162.723     -95.050
  O     -202.531    -160.715     -93.840
  H     -209.470    -165.379     -91.593
  H     -203.024    -160.220     -94.536
  H     -207.796    -164.005     -97.687
  H     -206.990    -163.246     -95.446
  H     -208.894    -163.329     -92.554
  H     -206.989    -165.719     -92.933
  H     -206.086    -165.151     -90.809
  H     -206.476    -162.314     -91.247
  H     -210.880    -166.075     -97.936
  H     -204.226    -163.496     -91.131
  H     -209.601    -165.341     -98.862
  H     -204.531    -164.079     -92.792
  P     -207.096    -164.168     -88.640
  C     -207.714    -166.660     -88.241
  O     -206.681    -165.691     -88.354
  O     -208.367    -163.929     -87.696
  O     -206.028    -163.156     -88.394
  H     -208.299    -163.054     -87.267
  H     -207.283    -167.621     -88.052
  H     -208.273    -166.693     -89.153
  H     -208.364    -166.396     -87.434

 6  7  8  9  10  11  12  13  14  15  16  26  30  31  32  33  35 0
 6-311+G(2d,p)
 ****
 37  38 0
 6-311+G(2d,p)
 ****
 1  2  3  4  5  17  18  19  20  21  22  23  24  25 0
 3-21G
 ****
 27  28  29  34  36  39  40  41  42  43  44  45  46 0
 3-21G
 ****


