%nproc=1
%NoSave
%Mem=1900MB
#P OB98/GEN NMR

erre ene a

0 1
  C      684.798     398.878    1449.405
  O      684.187     400.106    1449.838
  P      683.802     400.404    1451.353
  C      686.107     401.550    1451.619
  O      685.143     400.684    1452.201
  C      686.702     402.526    1452.655
  O      685.670     403.380    1453.192
  C      687.334     401.847    1453.860
  O      688.608     401.310    1453.536
  C      687.375     403.006    1454.853
  O      688.505     403.861    1454.629
  C      686.054     403.750    1454.528
  N      685.001     403.458    1455.494
  C      684.587     404.522    1456.312
  O      685.153     405.610    1456.247
  N      683.560     404.305    1457.205
  C      683.047     403.117    1457.310
  N      682.020     402.966    1458.203
  C      683.514     401.954    1456.528
  C      684.469     402.193    1455.639
  O      682.902     399.379    1451.976
  O      683.088     401.837    1451.339
  H      688.538     404.016    1453.659
  H      682.429     401.868    1452.055
  H      683.074     400.974    1456.680
  H      684.869     401.401    1455.012
  H      686.225     404.839    1454.498
  H      687.434     402.672    1455.907
  H      686.665     401.055    1454.255
  H      687.427     403.161    1452.140
  H      681.736     403.781    1458.718
  H      685.612     402.128    1450.830
  H      681.549     402.086    1458.365
  H      686.896     400.951    1451.166
  P      688.823     399.722    1453.528
  C      689.624     399.849    1451.085
  O      688.734     399.230    1452.002
  O      687.958     398.949    1454.495
  O      690.379     399.536    1453.875
  H      690.485     398.701    1454.368
  H      689.763     399.189    1450.237
  H      690.588     400.053    1451.560
  H      689.185     400.792    1450.743
  H      684.960     398.914    1448.348
  H      684.153     398.057    1449.640
  H      685.735     398.750    1449.905

 3  4  5  6  7  8  9  10  11  12  13  23  27  28  29  30  32 0
 6-311+G(2d,p)
 ****
 34  35 0
 6-311+G(2d,p)
 ****
 1  2  14  15  16  17  18  19  20  21  22  24  25  26 0
 3-21G
 ****
 31  33  36  37  38  39  40  41  42  43  44  45  46 0
 3-21G
 ****


