%nproc=1
%NoSave
%Mem=1900MB
#P OB98/GEN NMR

erre ene a

0 1
  C      391.131    -298.791    -247.001
  O      391.931    -299.408    -245.992
  P      391.905    -300.999    -245.821
  C      390.297    -301.001    -243.786
  O      390.528    -301.440    -245.121
  C      388.806    -301.116    -243.448
  O      387.991    -300.361    -244.376
  C      388.294    -302.549    -243.553
  O      388.756    -303.470    -242.582
  C      386.789    -302.339    -243.655
  O      386.185    -302.163    -242.376
  C      386.708    -301.028    -244.476
  N      386.348    -301.258    -245.880
  C      385.090    -300.805    -246.261
  O      384.285    -300.300    -245.483
  N      384.761    -301.009    -247.573
  C      385.534    -301.631    -248.516
  O      385.175    -301.802    -249.679
  C      386.853    -302.098    -248.042
  C      387.185    -301.900    -246.764
  O      393.135    -301.610    -245.237
  O      391.700    -301.504    -247.338
  H      385.269    -301.853    -242.526
  H      392.270    -302.286    -247.467
  H      383.844    -300.700    -247.876
  H      387.495    -302.610    -248.768
  H      388.156    -302.242    -246.399
  H      385.968    -300.352    -244.038
  H      386.295    -303.194    -244.131
  H      388.624    -302.952    -244.526
  H      388.643    -300.703    -242.447
  H      390.630    -299.963    -243.677
  H      390.911    -301.597    -243.108
  P      389.693    -304.713    -242.924
  C      387.577    -306.127    -243.469
  O      388.873    -305.725    -243.875
  O      390.482    -305.322    -241.807
  O      390.718    -304.056    -243.982
  H      391.600    -304.489    -243.875
  H      387.185    -306.820    -244.218
  H      386.913    -305.251    -243.405
  H      387.621    -306.633    -242.501
  H      391.273    -297.731    -246.970
  H      390.100    -299.018    -246.827
  H      391.421    -299.162    -247.962

 3  4  5  6  7  8  9  10  11  12  13  23  28  29  30  31  32 0
 6-311+G(2d,p)
 ****
 33  34 0
 6-311+G(2d,p)
 ****
 1  2  14  15  16  17  18  19  20  21  22  24  25  26  27 0
 3-21G
 ****
 35  36  37  38  39  40  41  42  43  44  45 0
 3-21G
 ****


