%nproc=1
%NoSave
%Mem=1900MB
#P OB98/GEN NMR

erre ene a

0 1
  C       81.133      61.809     -17.932
  O       79.855      61.333     -17.563
  H       81.891      61.143     -17.510
  H       81.300      62.818     -17.544
  H       81.235      61.808     -19.020
  P       78.569      62.219     -17.919
  C       77.473      64.357     -16.985
  O       78.567      63.452     -16.890
  C       77.510      65.370     -15.840
  O       77.440      64.649     -14.582
  C       78.773      66.237     -15.825
  O       78.410      67.556     -15.413
  C       79.626      65.564     -14.769
  O       80.573      66.456     -14.216
  C       78.573      65.041     -13.785
  N       79.098      63.930     -12.990
  C       79.882      64.273     -11.883
  O       80.092      65.454     -11.609
  N       80.468      63.271     -11.151
  C       80.330      62.036     -11.522
  N       80.969      61.096     -10.776
  C       79.532      61.633     -12.698
  C       78.949      62.619     -13.379
  O       77.272      61.486     -18.016
  O       78.957      62.908     -19.311
  H       80.117      67.089     -13.623
  H       78.661      62.350     -20.054
  H       79.455      60.591     -12.970
  H       78.355      62.419     -14.264
  H       78.247      65.840     -13.104
  H       80.173      64.723     -15.216
  H       79.278      66.273     -16.796
  H       76.607      65.994     -15.899
  H       81.522      61.423      -9.991
  H       76.549      63.773     -16.931
  H       80.971      60.110     -10.990
  H       77.506      64.875     -17.948
  P       78.544      68.796     -16.425
  C       80.268      70.560     -17.112
  O       80.031      69.398     -16.324
  O       77.454      69.813     -16.316
  O       78.524      68.109     -17.874
  H       78.132      68.729     -18.519
  H       81.279      70.882     -16.977
  H       79.602      71.340     -16.807
  H       80.101      70.331     -18.144

 6  7  8  9  10  11  12  13  14  15  16  26  30  31  32  33  35 0
 6-311+G(2d,p)
 ****
 37  38 0
 6-311+G(2d,p)
 ****
 1  2  3  4  5  17  18  19  20  21  22  23  24  25 0
 3-21G
 ****
 27  28  29  34  36  39  40  41  42  43  44  45  46 0
 3-21G
 ****


