%nproc=1
%NoSave
%Mem=1900MB
#P OB98/GEN NMR

erre ene a

0 1
  C      -94.388     436.159    -326.513
  O      -94.269     435.297    -327.625
  H      -95.440     436.198    -326.216
  H      -94.073     437.170    -326.777
  H      -93.801     435.796    -325.673
  P      -92.829     435.090    -328.311
  C      -92.088     433.126    -326.831
  O      -92.494     433.524    -328.138
  C      -91.960     431.601    -326.727
  O      -93.281     430.990    -326.911
  C      -91.028     430.989    -327.780
  O      -90.142     430.049    -327.158
  C      -91.974     430.247    -328.726
  O      -91.337     429.181    -329.432
  C      -93.081     429.836    -327.740
  N      -94.301     429.435    -328.429
  C      -94.205     428.314    -329.269
  O      -93.122     427.732    -329.396
  N      -95.292     427.930    -329.993
  C      -96.396     428.631    -329.937
  N      -97.430     428.206    -330.700
  C      -96.542     429.831    -329.078
  C      -95.473     430.170    -328.370
  O      -91.770     436.024    -327.815
  O      -93.095     435.219    -329.889
  H      -92.037     428.665    -329.910
  H      -92.255     435.454    -330.329
  H      -97.463     430.373    -329.057
  H      -95.471     431.037    -327.712
  H      -92.746     429.014    -327.107
  H      -92.367     430.950    -329.470
  H      -90.440     431.739    -328.323
  H      -91.648     431.343    -325.712
  H      -97.291     427.385    -331.274
  H      -92.825     433.500    -326.101
  H      -98.330     428.683    -330.749
  H      -91.114     433.581    -326.624
  P      -88.577     430.283    -327.416
  C      -88.185     431.718    -325.272
  O      -87.872     430.526    -325.986
  O      -88.521     431.715    -328.121
  O      -87.955     429.220    -328.263
  H      -88.265     431.615    -329.054
  H      -87.643     431.734    -324.350
  H      -89.235     431.747    -325.069
  H      -87.912     432.569    -325.861

 6  7  8  9  10  11  12  13  14  15  16  26  30  31  32  33  35 0
 6-311+G(2d,p)
 ****
 37  38 0
 6-311+G(2d,p)
 ****
 1  2  3  4  5  17  18  19  20  21  22  23  24  25 0
 3-21G
 ****
 27  28  29  34  36  39  40  41  42  43  44  45  46 0
 3-21G
 ****


