%nproc=1
%NoSave
%Mem=1900MB
#P OB98/GEN NMR

erre ene a

0 1
  C      -59.285     100.786    -153.691
  O      -58.545     101.547    -152.756
  H      -59.508      99.811    -153.255
  H      -58.686     100.637    -154.595
  H      -60.225     101.287    -153.944
  P      -58.372     103.112    -153.058
  C      -60.203     104.749    -152.229
  O      -59.119     103.905    -151.875
  C      -61.015     105.124    -150.986
  O      -61.420     103.901    -150.311
  C      -60.241     105.978    -149.972
  O      -61.132     106.948    -149.411
  C      -59.831     104.979    -148.905
  O      -59.615     105.591    -147.633
  C      -61.007     104.006    -148.937
  N      -59.475     101.579    -144.791
  C      -59.863     102.896    -144.963
  N      -59.830     103.687    -143.867
  N      -60.248     103.391    -146.111
  C      -60.264     102.473    -147.111
  C      -59.898     101.148    -147.068
  C      -59.448     100.618    -145.797
  O      -59.068      99.470    -145.586
  N      -60.022     100.556    -148.302
  C      -60.459     101.525    -149.088
  N      -60.628     102.703    -148.411
  O      -59.324     103.345    -154.326
  O      -56.975     103.561    -153.336
  H      -59.244     104.905    -147.036
  H      -58.789     103.607    -155.098
  H      -59.173     101.254    -143.887
  H      -60.660     101.430    -150.146
  H      -61.859     104.359    -148.345
  H      -58.901     104.480    -149.204
  H      -59.593     103.360    -142.945
  H      -59.381     106.489    -150.411
  H      -60.149     104.648    -143.964
  H      -61.935     105.628    -151.307
  H      -60.845     104.222    -152.940
  H      -59.816     105.658    -152.704
  P      -61.592     108.155    -150.364
  C      -63.637     107.088    -151.548
  O      -63.179     108.040    -150.597
  O      -60.972     107.752    -151.784
  O      -61.108     109.498    -149.916
  H      -60.218     108.338    -151.994
  H      -64.705     107.120    -151.599
  H      -63.324     106.109    -151.252
  H      -63.227     107.318    -152.509

 6  7  8  9  10  11  12  13  14  15  26  29  33  34 0
 6-311+G(2d,p)
 ****
 36  38  39  40  41 0
 6-311+G(2d,p)
 ****
 1  2  3  4  5  16  17  18  19  20  21  22  23  24  25 0
 3-21G
 ****
 27  28  30  31  32  35  37  42  43  44  45  46  47 0
 3-21G
 ****
 48  49 0
 3-21G
 ****


