%nproc=1
%NoSave
%Mem=1900MB
#P OB98/GEN NMR

erre ene a

0 1
  C      428.293     523.807     761.434
  O      427.851     522.616     760.764
  P      428.032     522.391     759.190
  C      426.322     524.100     758.274
  O      427.698     523.782     758.434
  C      426.108     525.338     757.418
  O      426.807     526.490     757.972
  C      426.627     525.202     755.975
  O      425.728     524.474     755.188
  C      426.790     526.671     755.571
  O      425.530     527.238     755.180
  C      427.284     527.317     756.907
  N      431.365     529.372     754.614
  C      430.029     529.443     754.328
  N      429.014     528.843     754.983
  C      429.463     528.167     756.050
  C      430.769     528.027     756.479
  C      431.756     528.681     755.696
  N      433.103     528.613     755.979
  N      430.861     527.242     757.601
  C      429.593     526.926     757.870
  N      428.718     527.467     756.960
  O      427.294     521.225     758.641
  O      429.609     522.232     758.974
  H      425.311     526.878     754.301
  H      429.778     521.683     758.196
  H      429.767     530.020     753.454
  H      429.278     526.312     758.707
  H      426.840     528.310     757.051
  H      427.489     526.802     754.743
  H      427.614     524.725     755.977
  H      425.042     525.581     757.392
  H      425.875     524.277     759.266
  H      433.747     529.077     755.370
  H      433.416     528.037     756.761
  H      425.806     523.245     757.818
  P      425.964     522.918     754.907
  C      428.083     523.266     753.496
  O      427.543     522.718     754.693
  O      425.094     522.299     753.867
  O      425.733     522.241     756.348
  H      425.394     521.326     756.228
  H      427.881     522.599     752.651
  H      429.156     523.362     753.631
  H      427.669     524.259     753.299
  H      428.068     523.734     762.477
  H      427.791     524.656     761.020
  H      429.349     523.918     761.304

 3  4  5  6  7  8  9  10  11  12  22  25  29  30  31  32 0
 6-311+G(2d,p)
 ****
 33  36  37 0
 6-311+G(2d,p)
 ****
 1  2  13  14  15  16  17  18  19  20  21  23  24  26 0
 3-21G
 ****
 27  28  34  35  38  39  40  41  42  43  44  45  46  47  48 0
 3-21G
 ****


