%nproc=1
%NoSave
%Mem=1900MB
#P OB98/GEN NMR

erre ene a

0 1
  C     -625.461     137.125    -706.386
  O     -626.863     136.894    -706.479
  P     -627.463     135.738    -705.533
  C     -629.951     136.071    -706.270
  O     -628.803     135.231    -706.251
  C     -630.953     135.559    -707.309
  O     -630.515     135.880    -708.637
  C     -631.155     134.047    -707.268
  O     -632.059     133.683    -706.244
  C     -631.680     133.779    -708.683
  O     -633.094     134.070    -708.766
  C     -630.870     134.782    -709.524
  N     -629.054     131.956    -713.307
  C     -630.355     132.195    -712.929
  N     -631.313     131.641    -713.690
  N     -630.697     132.926    -711.880
  C     -629.624     133.405    -711.212
  C     -628.291     133.226    -711.478
  C     -627.931     132.466    -712.656
  O     -626.797     132.307    -713.097
  N     -627.502     133.842    -710.543
  C     -628.363     134.434    -709.734
  N     -629.661     134.211    -710.101
  O     -627.971     136.552    -704.261
  O     -626.502     134.635    -705.186
  H     -633.461     133.672    -709.576
  H     -627.315     136.491    -703.534
  H     -628.863     131.407    -714.124
  H     -628.085     135.044    -708.891
  H     -631.454     135.196    -710.345
  H     -631.572     132.739    -708.971
  H     -631.140     131.047    -714.485
  H     -630.188     133.535    -707.144
  H     -632.286     131.802    -713.416
  H     -631.914     136.080    -707.131
  H     -629.635     137.088    -706.552
  H     -630.395     136.107    -705.265
  P     -631.515     132.702    -705.095
  C     -633.688     131.297    -704.880
  O     -632.322     131.333    -705.238
  O     -632.091     133.356    -703.747
  O     -630.039     132.572    -705.038
  H     -631.447     133.245    -703.028
  H     -634.197     130.531    -705.481
  H     -634.172     132.262    -705.041
  H     -633.776     131.022    -703.819
  H     -625.184     137.911    -707.058
  H     -624.934     136.231    -706.646
  H     -625.212     137.407    -705.384

 3  4  5  6  7  8  9  10  11  12  23  26  30  31 0
 6-311+G(2d,p)
 ****
 33  35  36  37  38 0
 6-311+G(2d,p)
 ****
 1  2  13  14  15  16  17  18  19  20  21  22  24  25 0
 3-21G
 ****
 27  28  29  32  34  39  40  41  42  43  44  45  46  47  48  49 0
 3-21G
 ****


