%nproc=1
%NoSave
%Mem=1900MB
#P OB98/GEN NMR

erre ene a

0 1
  C       82.399     -48.090    -821.874
  O       81.999     -46.755    -821.628
  H       81.914     -48.756    -821.154
  H       82.081     -48.374    -822.880
  H       83.485     -48.191    -821.808
  P       82.620     -46.030    -820.336
  C       85.212     -46.140    -820.444
  O       84.037     -45.424    -820.796
  C       86.448     -45.260    -820.614
  O       86.641     -45.000    -822.033
  C       86.360     -43.898    -819.896
  O       87.649     -43.585    -819.349
  C       86.056     -42.926    -821.032
  O       86.477     -41.600    -820.746
  C       86.802     -43.574    -822.192
  N       87.121     -39.859    -825.646
  C       87.934     -40.206    -824.624
  N       87.802     -41.259    -823.777
  C       86.740     -42.010    -824.117
  C       85.824     -41.783    -825.132
  C       86.037     -40.625    -825.914
  N       85.185     -40.226    -826.914
  N       84.840     -42.754    -825.121
  C       85.138     -43.534    -824.102
  N       86.272     -43.123    -823.461
  O       83.025     -47.276    -819.405
  O       81.710     -45.078    -819.632
  H       86.101     -41.324    -819.886
  H       82.261     -47.530    -818.856
  H       88.793     -39.564    -824.458
  H       84.553     -44.379    -823.770
  H       87.876     -43.349    -822.175
  H       84.973     -42.918    -821.221
  H       85.603     -43.862    -819.102
  H       87.326     -45.816    -820.264
  H       85.306     -47.015    -821.096
  H       85.360     -39.328    -827.343
  H       84.317     -40.722    -827.049
  H       85.126     -46.485    -819.405
  P       87.812     -43.673    -817.755
  C       86.841     -45.618    -816.320
  O       87.772     -45.218    -817.322
  O       86.422     -43.098    -817.210
  O       88.976     -42.894    -817.225
  H       86.553     -42.631    -816.366
  H       86.936     -46.669    -816.144
  H       85.847     -45.400    -816.650
  H       87.041     -45.085    -815.414

 6  7  8  9  10  11  12  13  14  15  25  28  32  33  34  35 0
 6-311+G(2d,p)
 ****
 36  39  40 0
 6-311+G(2d,p)
 ****
 1  2  3  4  5  16  17  18  19  20  21  22  23  24 0
 3-21G
 ****
 26  27  29  30  31  37  38  41  42  43  44  45  46  47 0
 3-21G
 ****
 48 0
 3-21G
 ****


