%nproc=1
%NoSave
%Mem=1900MB
#P OB98/GEN NMR

erre ene a

0 1
  C     -473.422     341.409     371.227
  O     -472.720     341.981     370.144
  H     -472.709     340.881     371.864
  H     -474.175     340.708     370.878
  H     -473.901     342.194     371.830
  P     -473.562     342.732     369.000
  C     -472.335     344.973     369.405
  O     -472.645     343.947     368.479
  C     -470.977     345.605     369.089
  O     -469.923     344.632     369.383
  C     -470.816     346.021     367.602
  O     -469.914     347.139     367.568
  C     -470.144     344.783     367.019
  O     -469.610     345.046     365.745
  C     -469.178     344.433     368.150
  N     -468.658     343.069     368.053
  C     -467.790     342.805     366.981
  O     -467.503     343.713     366.196
  N     -467.285     341.540     366.839
  C     -467.689     340.598     367.638
  N     -467.159     339.350     367.424
  C     -468.646     340.809     368.735
  C     -469.091     342.063     368.889
  O     -474.967     343.114     369.367
  O     -473.536     341.706     367.770
  H     -469.074     344.278     365.421
  H     -474.403     341.268     367.689
  H     -468.955     339.987     369.361
  H     -469.806     342.324     369.670
  H     -468.329     345.125     368.165
  H     -470.876     343.977     366.889
  H     -471.760     346.274     367.124
  H     -470.814     346.463     369.751
  H     -466.516     339.248     366.651
  H     -472.318     344.527     370.410
  H     -467.404     338.538     367.973
  H     -473.105     345.756     369.382
  P     -469.740     348.058     366.264
  C     -470.963     350.194     367.073
  O     -469.712     349.598     366.713
  O     -470.701     347.767     365.166
  O     -468.228     347.798     365.780
  H     -468.178     347.891     364.810
  H     -470.805     351.215     367.350
  H     -471.387     349.662     367.899
  H     -471.632     350.150     366.239

 6  7  8  9  10  11  12  13  14  15  16  26  30  31  32  33  35 0
 6-311+G(2d,p)
 ****
 37  38 0
 6-311+G(2d,p)
 ****
 1  2  3  4  5  17  18  19  20  21  22  23  24  25 0
 3-21G
 ****
 27  28  29  34  36  39  40  41  42  43  44  45  46 0
 3-21G
 ****


