%nproc=1
%NoSave
%Mem=1900MB
#P OB98/GEN NMR

erre ene a

0 1
  C     -152.525     302.059     332.785
  O     -151.524     301.145     332.387
  H     -152.418     302.251     333.855
  H     -153.518     301.638     332.604
  H     -152.422     303.008     332.248
  P     -151.371     300.792     330.830
  C     -151.815     298.591     329.563
  O     -152.279     299.498     330.557
  C     -152.352     297.191     329.844
  O     -151.861     296.708     331.116
  C     -153.876     297.120     329.937
  O     -154.459     297.182     328.650
  C     -154.050     295.792     330.665
  O     -153.900     294.686     329.761
  C     -152.871     295.834     331.670
  N     -153.282     296.282     333.006
  C     -154.077     295.393     333.727
  O     -154.439     294.304     333.291
  N     -154.488     295.832     334.961
  C     -154.257     297.076     335.478
  O     -154.824     297.500     336.484
  C     -153.350     297.933     334.708
  C     -152.917     297.511     333.519
  O     -149.973     300.703     330.322
  O     -152.190     301.960     330.100
  H     -151.564     302.624     329.757
  H     -154.120     293.883     330.269
  H     -155.108     295.221     335.469
  H     -153.091     298.904     335.120
  H     -152.272     298.140     332.916
  H     -152.414     294.841     331.765
  H     -155.032     295.698     331.131
  H     -154.252     297.928     330.578
  H     -151.982     296.514     329.063
  H     -150.723     298.570     329.591
  H     -152.143     298.942     328.579
  P     -155.980     297.651     328.457
  C     -158.244     296.524     328.043
  O     -156.916     296.348     328.503
  O     -156.221     298.542     327.281
  O     -156.342     298.403     329.826
  H     -156.688     299.297     329.622
  H     -158.773     295.597     328.118
  H     -158.228     296.844     327.022
  H     -158.734     297.264     328.641

 6  7  8  9  10  11  12  13  14  15  16  27  31  32  33  34  35 0
 6-311+G(2d,p)
 ****
 36  37 0
 6-311+G(2d,p)
 ****
 1  2  3  4  5  17  18  19  20  21  22  23  24  25 0
 3-21G
 ****
 26  28  29  30  38  39  40  41  42  43  44  45 0
 3-21G
 ****


