%nproc=1
%NoSave
%Mem=1900MB
#P OB98/GEN NMR

erre ene a

0 1
  C     -210.665     392.238     156.028
  O     -212.016     391.856     155.783
  P     -212.991     392.912     155.073
  C     -213.482     394.176     157.269
  O     -212.998     394.264     155.934
  C     -213.319     395.523     157.993
  O     -213.881     396.574     157.163
  C     -214.053     395.622     159.339
  O     -213.361     395.210     160.518
  C     -214.248     397.134     159.456
  O     -213.054     397.745     159.984
  C     -214.459     397.583     158.018
  N     -218.409     400.827     158.265
  C     -217.128     400.929     158.689
  N     -216.143     400.019     158.582
  C     -216.575     398.909     157.958
  C     -217.846     398.672     157.468
  C     -218.795     399.689     157.642
  N     -220.101     399.585     157.225
  N     -217.918     397.417     156.894
  C     -216.710     396.911     157.053
  N     -215.861     397.774     157.676
  O     -214.340     392.394     154.680
  O     -212.147     393.339     153.773
  H     -213.166     398.706     159.873
  H     -212.760     393.460     153.025
  H     -216.864     401.862     159.177
  H     -216.416     395.921     156.731
  H     -213.947     398.526     157.793
  H     -215.061     397.396     160.142
  H     -215.026     395.125     159.293
  H     -212.250     395.734     158.134
  H     -212.929     393.402     157.807
  H     -220.731     400.345     157.432
  H     -220.421     398.720     156.809
  H     -214.522     393.844     157.221
  P     -213.539     393.733     161.114
  C     -214.985     394.513     163.150
  O     -214.902     393.773     161.956
  O     -212.359     393.213     161.865
  O     -213.933     392.884     159.823
  H     -214.811     393.091     159.455
  H     -216.038     394.593     163.448
  H     -214.586     395.527     163.008
  H     -214.431     394.003     163.939
  H     -210.147     391.432     156.504
  H     -210.647     393.098     156.665
  H     -210.186     392.471     155.100

 3  4  5  6  7  8  9  10  11  12  22  25  29  30  31  32 0
 6-311+G(2d,p)
 ****
 33  36  37 0
 6-311+G(2d,p)
 ****
 1  2  13  14  15  16  17  18  19  20  21  23  24  26 0
 3-21G
 ****
 27  28  34  35  38  39  40  41  42  43  44  45  46  47  48 0
 3-21G
 ****


