%nproc=1
%NoSave
%Mem=1900MB
#P OB98/GEN NMR

erre ene a

0 1
  C     -273.466    -432.010     147.104
  O     -273.884    -430.643     147.205
  P     -273.132    -429.433     146.465
  C     -274.845    -427.508     146.445
  O     -273.670    -428.037     147.044
  C     -276.112    -427.965     147.177
  O     -276.035    -427.599     148.589
  C     -277.417    -427.366     146.620
  O     -278.403    -428.404     146.681
  C     -277.710    -426.259     147.621
  O     -279.052    -425.811     147.601
  C     -277.291    -426.962     148.916
  N     -277.139    -426.096     150.080
  C     -278.015    -426.295     151.154
  O     -278.918    -427.126     151.103
  N     -277.858    -425.516     152.278
  C     -276.924    -424.620     152.327
  N     -276.820    -423.892     153.471
  C     -275.996    -424.365     151.212
  C     -276.157    -425.133     150.137
  O     -273.186    -429.518     144.973
  O     -271.614    -429.500     146.974
  H     -271.019    -429.242     146.244
  H     -279.613    -426.528     147.952
  H     -275.227    -423.613     151.296
  H     -275.493    -425.026     149.282
  H     -278.004    -427.762     149.144
  H     -277.069    -425.403     147.395
  H     -277.336    -427.020     145.585
  H     -276.150    -429.059     147.139
  H     -277.470    -424.102     154.219
  H     -274.893    -427.855     145.409
  H     -276.125    -423.176     153.620
  H     -274.781    -426.414     146.439
  P     -279.058    -428.957     145.325
  C     -278.966    -431.560     145.349
  O     -279.699    -430.390     145.647
  O     -277.756    -429.364     144.475
  O     -279.895    -427.990     144.555
  H     -277.976    -429.330     143.523
  H     -279.047    -432.248     146.194
  H     -277.908    -431.353     145.170
  H     -279.393    -432.035     144.464
  H     -274.121    -432.627     147.682
  H     -272.467    -432.106     147.474
  H     -273.498    -432.318     146.080

 3  4  5  6  7  8  9  10  11  12  13  24  27  28  29  30  32 0
 6-311+G(2d,p)
 ****
 34  35 0
 6-311+G(2d,p)
 ****
 1  2  14  15  16  17  18  19  20  21  22  23  25  26 0
 3-21G
 ****
 31  33  36  37  38  39  40  41  42  43  44  45  46 0
 3-21G
 ****


