%nproc=1
%NoSave
%Mem=1900MB
#P OB98/GEN NMR

erre ene a

0 1
  C       73.275      58.671     149.467
  O       73.397      59.094     148.119
  P       72.226      58.826     147.065
  C       71.332      56.731     145.756
  O       72.319      57.306     146.584
  C       71.828      55.362     145.271
  O       72.958      55.524     144.391
  C       72.260      54.476     146.437
  O       71.198      53.628     146.842
  C       73.447      53.728     145.861
  O       73.002      52.612     145.067
  C       74.089      54.807     144.956
  N       74.989      55.794     145.583
  C       76.081      55.355     146.328
  O       76.374      54.173     146.478
  N       76.829      56.341     146.925
  C       76.615      57.685     146.810
  O       77.129      58.532     147.531
  C       75.628      58.083     145.803
  C       74.857      57.139     145.263
  O       72.702      59.650     145.779
  O       70.856      59.222     147.512
  H       72.596      52.976     144.261
  H       72.247      60.512     145.737
  H       77.537      56.025     147.579
  H       75.523      59.136     145.575
  H       74.092      57.415     144.542
  H       74.641      54.347     144.128
  H       74.070      53.309     146.649
  H       72.610      55.095     147.275
  H       71.024      54.876     144.701
  H       71.130      57.387     144.902
  H       70.394      56.620     146.309
  P       70.877      53.452     148.400
  C       71.950      52.137     150.322
  O       71.922      52.354     148.924
  O       69.447      53.189     148.738
  O       71.397      54.827     149.040
  H       70.644      55.442     149.161
  H       72.560      51.255     150.528
  H       70.938      51.969     150.706
  H       72.398      53.001     150.820
  H       74.158      58.942     150.007
  H       73.150      57.609     149.498
  H       72.425      59.143     149.913

 3  4  5  6  7  8  9  10  11  12  13  23  28  29  30  31  32 0
 6-311+G(2d,p)
 ****
 33  34 0
 6-311+G(2d,p)
 ****
 1  2  14  15  16  17  18  19  20  21  22  24  25  26  27 0
 3-21G
 ****
 35  36  37  38  39  40  41  42  43  44  45 0
 3-21G
 ****


