%nproc=1
%NoSave
%Mem=1900MB
#P OB98/GEN NMR

erre ene a

0 1
  C        7.529     108.654    -599.493
  O        8.787     108.111    -599.825
  H        7.347     108.494    -598.427
  H        6.741     108.143    -600.056
  H        7.494     109.723    -599.697
  P        9.392     108.380    -601.285
  C        7.951     106.424    -602.159
  O        8.335     107.781    -602.338
  C        8.233     105.626    -603.435
  O        7.785     104.266    -603.284
  C        7.529     106.167    -604.681
  O        8.172     107.333    -605.166
  C        7.616     104.952    -605.595
  O        8.906     104.867    -606.220
  C        7.397     103.792    -604.596
  N        6.025     103.285    -604.589
  C        5.717     102.302    -605.526
  O        6.525     101.896    -606.359
  N        4.437     101.824    -605.497
  C        3.431     102.271    -604.685
  O        2.284     101.843    -604.725
  C        3.799     103.332    -603.731
  C        5.054     103.787    -603.718
  O       10.809     107.953    -601.504
  O        9.219     109.965    -601.474
  H        8.888     104.095    -606.810
  H       10.070     110.405    -601.305
  H        4.189     101.118    -606.172
  H        3.033     103.718    -603.074
  H        5.352     104.565    -603.045
  H        8.067     102.948    -604.836
  H        6.883     104.986    -606.410
  H        6.473     106.368    -604.455
  H        9.323     105.615    -603.586
  H        6.877     106.385    -601.948
  H        8.499     106.005    -601.313
  P        7.331     108.662    -605.483
  C        7.216     108.085    -607.982
  O        6.466     108.380    -606.814
  O        8.129     109.927    -605.507
  O        6.225     108.703    -604.316
  H        6.460     109.395    -603.671
  H        6.549     107.916    -608.801
  H        7.806     107.208    -607.815
  H        7.859     108.909    -608.210

 6  7  8  9  10  11  12  13  14  15  16  26  31  32  33  34  35 0
 6-311+G(2d,p)
 ****
 36  37 0
 6-311+G(2d,p)
 ****
 1  2  3  4  5  17  18  19  20  21  22  23  24  25 0
 3-21G
 ****
 27  28  29  30  38  39  40  41  42  43  44  45 0
 3-21G
 ****


