%nproc=1
%NoSave
%Mem=1900MB
#P OB98/GEN NMR

erre ene a

0 1
  C     -317.664     380.579     394.509
  O     -316.564     380.648     395.395
  H     -317.334     380.204     393.533
  H     -318.405     379.889     394.916
  H     -318.112     381.569     394.390
  P     -315.333     381.579     394.957
  C     -316.000     382.838     397.127
  O     -314.949     382.487     396.235
  C     -315.589     384.043     397.961
  O     -314.553     383.630     398.897
  C     -315.046     385.236     397.142
  O     -315.819     386.415     397.404
  C     -313.643     385.465     397.695
  O     -313.310     386.838     397.834
  C     -313.670     384.743     399.043
  N     -309.118     386.320     400.714
  C     -310.341     386.901     400.773
  N     -311.528     386.380     400.407
  C     -311.393     385.115     399.963
  C     -310.206     384.394     399.858
  C     -309.028     385.059     400.242
  N     -307.775     384.490     400.131
  N     -310.447     383.138     399.338
  C     -311.741     383.116     399.094
  N     -312.356     384.300     399.434
  O     -316.001     382.616     393.938
  O     -314.187     380.864     394.331
  H     -313.326     387.227     396.943
  H     -315.463     382.691     393.136
  H     -310.374     387.915     401.169
  H     -312.289     382.302     398.625
  H     -314.064     385.395     399.843
  H     -312.914     384.989     397.013
  H     -315.008     385.033     396.070
  H     -316.456     384.364     398.562
  H     -316.209     381.996     397.794
  H     -306.982     385.081     400.319
  H     -307.689     383.590     399.685
  H     -316.909     383.046     396.548
  P     -316.671     387.002     396.162
  C     -318.679     388.061     397.444
  O     -317.486     388.266     396.701
  O     -317.824     385.892     395.958
  O     -315.865     387.204     394.917
  H     -318.132     385.885     395.038
  H     -319.092     389.008     397.724
  H     -318.458     387.494     398.324
  H     -319.386     387.527     396.844

 6  7  8  9  10  11  12  13  14  15  25  28  32  33  34  35 0
 6-311+G(2d,p)
 ****
 36  39  40 0
 6-311+G(2d,p)
 ****
 1  2  3  4  5  16  17  18  19  20  21  22  23  24 0
 3-21G
 ****
 26  27  29  30  31  37  38  41  42  43  44  45  46  47  48 0
 3-21G
 ****


