%nproc=1
%NoSave
%Mem=1900MB
#P OB98/GEN NMR

erre ene a

0 1
  C      134.537     335.031     132.505
  O      135.217     335.655     131.433
  H      133.985     335.792     133.063
  H      135.254     334.551     133.176
  H      133.829     334.290     132.124
  P      136.075     334.700     130.472
  C      137.737     333.662     132.178
  O      137.535     334.595     131.125
  C      139.076     333.938     132.858
  O      140.157     333.649     131.941
  C      139.270     335.389     133.271
  O      138.583     335.707     134.469
  C      140.783     335.455     133.406
  O      141.217     334.972     134.684
  C      141.260     334.517     132.291
  N      145.312     336.693     130.077
  C      145.183     335.963     131.208
  N      144.068     335.410     131.723
  C      143.011     335.641     130.926
  C      142.989     336.360     129.745
  C      144.211     336.904     129.317
  N      144.339     337.668     128.180
  N      141.707     336.415     129.235
  C      140.969     335.734     130.088
  N      141.714     335.245     131.125
  O      136.301     335.607     129.173
  O      135.430     333.399     130.135
  H      140.839     335.580     135.350
  H      135.668     335.348     128.479
  H      146.096     335.817     131.776
  H      139.903     335.574     130.003
  H      142.088     333.874     132.616
  H      141.138     336.477     133.299
  H      138.960     336.055     132.459
  H      139.173     333.269     133.722
  H      137.742     332.648     131.768
  H      136.914     333.754     132.895
  H      145.230     338.080     127.969
  H      143.505     337.924     127.668
  P      137.351     336.732     134.368
  C      138.984     338.633     135.099
  O      137.719     338.003     135.272
  O      136.185     336.007     135.187
  O      136.931     337.063     132.976
  H      135.321     336.194     134.771
  H      139.067     339.458     135.775
  H      139.072     338.986     134.093
  H      139.764     337.928     135.299

 6  7  8  9  10  11  12  13  14  15  25  28  32  33  34  35 0
 6-311+G(2d,p)
 ****
 36  37  40 0
 6-311+G(2d,p)
 ****
 1  2  3  4  5  16  17  18  19  20  21  22  23  24 0
 3-21G
 ****
 26  27  29  30  31  38  39 41  42  43  44  45  46  47  48 0
 3-21G
 ****


