%nproc=1
%NoSave
%Mem=1900MB
#P OB98/GEN NMR

erre ene a

0 1
  C       47.196    -143.846    -899.390
  O       45.837    -143.577    -899.110
  H       47.289    -144.784    -899.950
  H       47.596    -143.031    -900.000
  H       47.761    -143.907    -898.450
  P       45.033    -144.712    -898.320
  C       46.056    -144.141    -896.010
  O       44.881    -144.193    -896.800
  C       46.023    -142.912    -895.100
  O       46.163    -141.712    -895.900
  C       44.728    -142.726    -894.320
  O       44.681    -143.569    -893.180
  C       44.846    -141.265    -893.930
  O       45.711    -141.130    -892.790
  C       45.509    -140.638    -895.170
  N       42.062    -136.859    -895.610
  C       42.829    -137.263    -894.580
  N       43.708    -138.278    -894.520
  C       43.792    -138.905    -895.710
  C       43.073    -138.603    -896.860
  C       42.169    -137.533    -896.790
  N       41.379    -137.137    -897.840
  N       43.423    -139.454    -897.890
  C       44.324    -140.258    -897.370
  N       44.579    -139.969    -896.060
  O       46.089    -145.910    -898.200
  O       43.766    -145.177    -898.970
  H       45.277    -141.597    -892.050
  H       45.622    -146.761    -898.270
  H       42.726    -136.684    -893.660
  H       44.839    -141.049    -897.910
  H       46.291    -139.926    -894.880
  H       43.888    -140.814    -893.660
  H       43.853    -142.867    -894.970
  H       46.886    -142.971    -894.430
  H       46.937    -144.084    -896.660
  H       40.908    -136.256    -897.790
  H       41.474    -137.643    -898.720
  H       46.120    -145.055    -895.400
  P       43.289    -143.648    -892.370
  C       42.163    -145.064    -894.240
  O       42.565    -144.990    -892.880
  O       42.413    -142.488    -893.050
  O       43.408    -143.469    -890.900
  H       41.744    -142.162    -892.420
  H       41.700    -146.011    -894.424
  H       43.020    -144.957    -894.872
  H       41.466    -144.280    -894.449

 6  7  8  9  10  11  12  13  14  15  25  28  32  33  34  35 0
 6-311+G(2d,p)
 ****
 36  39  40 0
 6-311+G(2d,p)
 ****
 1  2  3  4  5  16  17  18  19  20  21  22  23  24 0
 3-21G
 ****
 26  27  29  30  31  37  38  41  42  43  44  45  46  47  48 0
 3-21G
 ****


