%nproc=1
%NoSave
%Mem=1900MB
#P OB98/GEN NMR

erre ene a

0 1
  C       73.268    -890.727    -462.665
  O       73.929    -891.467    -461.630
  P       75.518    -891.420    -461.422
  C       77.197    -889.652    -460.560
  O       75.894    -890.212    -460.430
  C       77.606    -888.873    -459.301
  O       76.559    -887.974    -458.891
  C       77.905    -889.748    -458.078
  O       79.163    -890.379    -458.193
  C       77.799    -888.716    -456.956
  O       79.029    -887.962    -456.826
  C       76.657    -887.806    -457.459
  N       75.390    -888.088    -456.804
  C       75.287    -887.692    -455.458
  O       76.241    -887.185    -454.878
  N       74.094    -887.892    -454.798
  C       73.126    -888.512    -455.412
  N       71.973    -888.693    -454.712
  C       73.226    -889.037    -456.793
  C       74.380    -888.781    -457.417
  O       76.308    -891.424    -462.693
  O       75.863    -892.723    -460.546
  H       78.842    -887.233    -456.216
  H       76.754    -893.038    -460.784
  H       72.407    -889.570    -457.247
  H       74.528    -889.123    -458.432
  H       76.914    -886.750    -457.304
  H       77.589    -889.179    -455.986
  H       77.115    -890.492    -457.962
  H       78.489    -888.261    -459.561
  H       71.926    -888.316    -453.773
  H       77.196    -888.965    -461.420
  H       71.155    -889.160    -455.091
  H       77.910    -890.462    -460.760
  P       79.246    -891.953    -458.452
  C       79.549    -893.530    -460.465
  O       79.434    -892.181    -460.020
  O       78.169    -892.770    -457.813
  O       80.693    -892.365    -457.861
  H       80.642    -893.276    -457.521
  H       79.257    -893.587    -461.511
  H       78.877    -894.178    -459.884
  H       80.573    -893.863    -460.346
  H       72.215    -890.908    -462.616
  H       73.639    -891.039    -463.619
  H       73.457    -889.682    -462.533

 3  4  5  6  7  8  9  10  11  12  13  23  27  28  29  30  32 0
 6-311+G(2d,p)
 ****
 34  35 0
 6-311+G(2d,p)
 ****
 1  2  14  15  16  17  18  19  20  21  22  24  25  26 0
 3-21G
 ****
 31  33  36  37  38  39  40  41  42  43  44  45  46 0
 3-21G
 ****


