%nproc=1
%NoSave
%Mem=1900MB
#P OB98/GEN NMR

erre ene a

0 1
  C      -10.642      39.743     -64.319
  O      -12.033      39.981     -64.328
  H      -10.239      40.057     -63.353
  H      -10.156      40.327     -65.105
  H      -10.427      38.681     -64.457
  P      -12.901      39.441     -65.561
  C      -14.778      38.456     -64.089
  O      -13.743      38.189     -65.021
  C      -16.006      37.583     -64.374
  O      -16.547      37.956     -65.679
  C      -15.709      36.071     -64.425
  O      -16.898      35.395     -63.995
  C      -15.468      35.876     -65.911
  O      -15.436      34.522     -66.282
  C      -16.605      36.745     -66.464
  N      -16.524      37.051     -67.887
  C      -16.968      36.083     -68.782
  O      -17.428      34.990     -68.459
  N      -16.864      36.410     -70.109
  C      -16.388      37.584     -70.613
  O      -16.348      37.832     -71.812
  C      -15.927      38.563     -69.619
  C      -16.020      38.261     -68.322
  O      -12.150      39.199     -66.827
  O      -14.026      40.567     -65.751
  H      -13.791      41.139     -66.506
  H      -15.480      34.457     -67.260
  H      -17.185      35.723     -70.773
  H      -15.532      39.501     -69.985
  H      -15.697      38.967     -67.565
  H      -17.571      36.274     -66.254
  H      -14.494      36.285     -66.188
  H      -14.871      35.777     -63.787
  H      -16.781      37.808     -63.633
  H      -15.050      39.513     -64.173
  H      -14.408      38.263     -63.076
  P      -16.884      34.015     -63.176
  C      -17.125      35.496     -61.066
  O      -16.521      34.346     -61.647
  O      -16.019      32.960     -63.783
  O      -18.412      33.543     -63.114
  H      -18.451      32.573     -63.022
  H      -16.798      35.597     -60.052
  H      -18.189      35.390     -61.089
  H      -16.841      36.366     -61.620

 6  7  8  9  10  11  12  13  14  15  16  27  31  32  33  34  35 0
 6-311+G(2d,p)
 ****
 36  37 0
 6-311+G(2d,p)
 ****
 1  2  3  4  5  17  18  19  20  21  22  23  24  25 0
 3-21G
 ****
 26  28  29  30  38  39  40  41  42  43  44  45 0
 3-21G
 ****


