%nproc=1
%NoSave
%Mem=1900MB
#P OB98/GEN NMR

erre ene a

0 1
  C      135.305     359.237    -544.213
  O      135.767     358.372    -545.236
  H      135.687     360.240    -544.410
  H      135.666     358.907    -543.239
  H      134.208     359.274    -544.214
  P      135.374     356.823    -545.157
  C      137.349     356.489    -543.521
  O      136.708     356.048    -544.715
  C      138.449     355.501    -543.120
  O      137.876     354.296    -542.585
  C      139.355     355.067    -544.276
  O      140.352     356.049    -544.523
  C      139.931     353.783    -543.705
  O      140.953     354.094    -542.734
  C      138.703     353.182    -542.993
  N      138.102     348.399    -544.602
  C      139.122     348.961    -543.864
  N      140.146     348.147    -543.538
  N      139.147     350.217    -543.498
  C      138.100     350.927    -543.956
  C      137.029     350.488    -544.705
  C      136.986     349.086    -545.050
  O      136.078     348.542    -545.674
  N      136.193     351.524    -545.057
  C      136.732     352.579    -544.479
  N      137.897     352.279    -543.803
  O      134.712     356.247    -546.371
  O      134.445     356.716    -543.858
  H      141.325     353.247    -542.421
  H      133.502     356.816    -544.086
  H      138.136     347.429    -544.864
  H      136.325     353.589    -544.511
  H      138.986     352.625    -542.090
  H      140.389     353.153    -544.465
  H      140.255     347.220    -543.921
  H      138.779     354.830    -545.172
  H      140.937     348.556    -543.049
  H      139.044     355.970    -542.315
  H      136.588     356.545    -542.737
  H      137.787     357.481    -543.673
  P      140.427     356.840    -545.924
  C      142.879     356.214    -546.458
  O      141.972     357.240    -546.101
  O      139.465     357.972    -546.055
  O      140.248     355.690    -547.024
  H      139.303     355.480    -547.223
  H      143.865     356.622    -546.540
  H      142.588     355.792    -547.397
  H      142.870     355.452    -545.706

 6  7  8  9  10  11  12  13  14  15  26  29  33  34 0
 6-311+G(2d,p)
 ****
 36  38  39  40  41 0
 6-311+G(2d,p)
 ****
 1  2  3  4  5  16  17  18  19  20  21  22  23  24  25 0
 3-21G
 ****
 27  28  30  31  32  35  37  42  43  44  45  46  47 0
 3-21G
 ****
 48  49 0
 3-21G
 ****


