%nproc=1
%NoSave
%Mem=1900MB
#P OB98/GEN NMR

erre ene a

0 1
  C     -138.459    -266.794    -220.216
  O     -139.515    -266.937    -219.287
  H     -137.596    -266.322    -219.739
  H     -138.169    -267.785    -220.571
  H     -138.789    -266.195    -221.069
  P     -140.016    -265.595    -218.566
  C     -138.223    -265.881    -216.712
  O     -138.767    -265.041    -217.721
  C     -137.031    -265.203    -216.049
  O     -135.899    -265.195    -216.943
  C     -137.257    -263.745    -215.669
  O     -138.006    -263.615    -214.468
  C     -135.819    -263.277    -215.486
  O     -135.343    -263.676    -214.187
  C     -135.076    -264.056    -216.580
  N     -132.384    -260.163    -218.579
  C     -132.415    -260.693    -217.333
  N     -133.161    -261.718    -216.873
  C     -133.932    -262.224    -217.850
  C     -134.007    -261.792    -219.163
  C     -133.190    -260.705    -219.520
  N     -133.179    -260.162    -220.788
  N     -134.897    -262.562    -219.879
  C     -135.353    -263.446    -219.016
  N     -134.805    -263.278    -217.774
  O     -141.019    -266.128    -217.434
  O     -140.679    -264.597    -219.458
  H     -136.050    -263.460    -213.552
  H     -141.752    -265.492    -217.336
  H     -131.747    -260.232    -216.611
  H     -136.077    -264.222    -219.247
  H     -134.125    -264.456    -216.213
  H     -135.708    -262.194    -215.554
  H     -137.717    -263.187    -216.492
  H     -136.757    -265.795    -215.164
  H     -137.896    -266.824    -217.165
  H     -132.441    -259.527    -221.033
  H     -133.784    -260.581    -221.488
  H     -139.003    -266.094    -215.974
  P     -139.178    -262.513    -214.441
  C     -137.472    -260.852    -213.409
  O     -138.428    -261.095    -214.436
  O     -139.751    -262.633    -212.952
  O     -140.243    -262.699    -215.467
  H     -140.678    -262.327    -212.928
  H     -137.057    -259.874    -213.532
  H     -136.691    -261.581    -213.469
  H     -137.950    -260.919    -212.454

 6  7  8  9  10  11  12  13  14  15  25  28  32  33  34  35 0
 6-311+G(2d,p)
 ****
 36  39  40 0
 6-311+G(2d,p)
 ****
 1  2  3  4  5  16  17  18  19  20  21  22  23  24 0
 3-21G
 ****
 26  27  29  30  31  37  38  41  42  43  44  45  46  47  48 0
 3-21G
 ****


