%nproc=1
%NoSave
%Mem=1900MB
#P OB98/GEN NMR

erre ene a

0 1
  C     -160.596     622.022     587.815
  O     -161.560     621.106     587.273
  P     -162.747     620.571     588.209
  C     -162.068     618.464     589.590
  O     -162.155     619.882     589.532
  C     -161.354     617.999     590.869
  O     -162.116     618.420     592.051
  C     -161.164     616.482     590.984
  O     -159.941     616.253     591.696
  C     -162.352     616.062     591.837
  O     -162.181     614.799     592.458
  C     -162.407     617.235     592.826
  N     -163.678     617.372     593.534
  C     -163.951     616.471     594.552
  O     -163.229     615.525     594.867
  N     -165.140     616.671     595.218
  C     -166.070     617.631     594.937
  O     -167.130     617.737     595.541
  C     -165.733     618.534     593.831
  C     -164.573     618.363     593.192
  O     -163.285     619.308     587.380
  O     -163.860     621.541     588.453
  H     -162.264     614.118     591.770
  H     -164.260     619.324     587.350
  H     -165.349     616.040     595.972
  H     -166.446     619.313     593.571
  H     -164.293     619.034     592.378
  H     -161.591     617.137     593.557
  H     -163.250     616.016     591.216
  H     -161.141     615.974     590.008
  H     -160.387     618.515     590.925
  H     -161.510     618.102     588.723
  H     -163.078     618.038     589.546
  P     -158.600     615.982     590.847
  C     -158.949     613.409     590.503
  O     -158.875     614.702     589.928
  O     -157.637     615.419     592.000
  O     -158.049     617.189     590.158
  H     -158.080     614.757     592.571
  H     -159.497     613.433     591.448
  H     -157.935     613.037     590.675
  H     -159.467     612.747     589.812
  H     -159.880     622.274     587.061
  H     -160.096     621.565     588.643
  H     -161.094     622.910     588.145

 3  4  5  6  7  8  9  10  11  12  13  23  28  29  30  31  32 0
 6-311+G(2d,p)
 ****
 33  34 0
 6-311+G(2d,p)
 ****
 1  2  14  15  16  17  18  19  20  21  22  24  25  26 0
 3-21G
 ****
 27  35  36  37  38  39  40  41  42  43  44  45 0
 3-21G
 ****


