%nproc=1
%NoSave
%Mem=1900MB
#P OB98/GEN NMR

erre ene a

0 1
  C        1.560      38.187      84.070
  O        1.312      39.247      84.978
  H        1.905      37.316      84.635
  H        2.338      38.463      83.353
  H        0.643      37.922      83.538
  P        0.944      40.687      84.377
  C        3.218      41.837      84.823
  O        2.326      41.301      83.852
  C        3.421      43.332      84.582
  O        4.218      43.542      83.401
  C        2.117      44.082      84.347
  O        1.421      44.282      85.562
  C        2.631      45.337      83.673
  O        3.148      46.273      84.630
  C        3.765      44.772      82.786
  N        3.344      44.547      81.406
  C        3.522      45.618      80.525
  O        4.012      46.675      80.922
  N        3.118      45.466      79.222
  C        2.601      44.345      78.827
  N        2.219      44.265      77.524
  C        2.410      43.185      79.717
  C        2.797      43.354      80.983
  O        0.156      41.607      85.260
  O        0.161      40.341      83.021
  H        3.549      46.994      84.105
  H       -0.795      40.254      83.192
  H        1.978      42.269      79.347
  H        2.696      42.550      81.704
  H        4.623      45.455      82.775
  H        1.846      45.841      83.111
  H        1.495      43.540      83.627
  H        3.970      43.748      85.438
  H        2.358      45.087      76.953
  H        4.168      41.304      84.718
  H        1.894      43.414      77.085
  H        2.834      41.667      85.835
  P       -0.019      44.986      85.572
  C        0.760      46.984      87.016
  O        0.278      46.558      85.738
  O       -1.003      44.416      86.536
  O       -0.487      44.878      84.042
  H       -0.763      43.953      83.813
  H        0.919      48.042      87.003
  H        1.683      46.487      87.233
  H        0.039      46.741      87.768

 6  7  8  9  10  11  12  13  14  15  16  26  30  31  32  33  35 0
 6-311+G(2d,p)
 ****
 37  38 0
 6-311+G(2d,p)
 ****
 1  2  3  4  5  17  18  19  20  21  22  23  24  25 0
 3-21G
 ****
 27  28  29  34  36  39  40  41  42  43  44  45  46 0
 3-21G
 ****


