%nproc=1
%NoSave
%Mem=1900MB
#P OB98/GEN NMR

erre ene a

0 1
  C     -148.328     272.303      97.243
  O     -146.982     272.550      97.657
  P     -145.816     271.595      97.101
  C     -145.850     270.265      99.313
  O     -145.048     270.962      98.365
  C     -144.977     269.517     100.316
  O     -144.151     268.522      99.670
  C     -144.006     270.422     101.062
  O     -144.686     271.194     102.044
  C     -143.007     269.410     101.608
  O     -143.497     268.805     102.819
  C     -142.962     268.362     100.468
  N     -141.756     268.450      99.659
  C     -140.628     267.799     100.167
  O     -140.674     267.226     101.257
  N     -139.473     267.823      99.427
  C     -139.436     268.454      98.292
  N     -138.260     268.440      97.602
  C     -140.601     269.167      97.727
  C     -141.709     269.132      98.464
  O     -144.934     272.197      96.055
  O     -146.630     270.341      96.522
  H     -142.963     267.992     102.944
  H     -146.126     269.956      95.781
  H     -140.530     269.669      96.776
  H     -142.620     269.632      98.126
  H     -143.007     267.344     100.890
  H     -142.046     269.874     101.847
  H     -143.505     271.089     100.349
  H     -145.640     269.007     101.033
  H     -137.481     267.957      98.014
  H     -146.504     269.560      98.786
  H     -138.151     268.859      96.689
  H     -146.507     270.983      99.816
  P     -145.089     272.695     101.654
  C     -143.235     273.691     103.179
  O     -144.614     273.651     102.851
  O     -146.688     272.688     101.807
  O     -144.680     273.117     100.279
  H     -147.077     273.286     101.145
  H     -143.035     274.592     103.762
  H     -142.615     273.710     102.276
  H     -142.980     272.811     103.777
  H     -148.978     273.021      97.698
  H     -148.618     271.318      97.543
  H     -148.395     272.386      96.178

 3  4  5  6  7  8  9  10  11  12  13  23  27  28  29  30  32 0
 6-311+G(2d,p)
 ****
 34  35 0
 6-311+G(2d,p)
 ****
 1  2  14  15  16  17  18  19  20  21  22  24  25  26 0
 3-21G
 ****
 31  33  36  37  38  39  40  41  42  43  44  45  46 0
 3-21G
 ****


