%nproc=1
%NoSave
%Mem=1900MB
#P OB98/GEN NMR

erre ene a

0 1
  C     -709.693     267.509    -507.930
  O     -709.089     267.982    -506.706
  P     -709.352     269.494    -506.304
  C     -707.172     270.727    -507.003
  O     -707.940     270.173    -505.935
  C     -705.993     271.530    -506.438
  O     -706.443     272.723    -505.740
  C     -705.162     270.746    -505.428
  O     -704.324     269.809    -506.082
  C     -704.397     271.893    -504.756
  O     -703.283     272.320    -505.566
  C     -705.471     272.998    -504.704
  N     -704.855     274.053    -499.730
  C     -703.982     274.026    -500.760
  N     -704.232     273.733    -502.070
  C     -705.527     273.460    -502.250
  C     -706.532     273.441    -501.302
  C     -706.143     273.748    -499.977
  N     -707.046     273.736    -498.910
  N     -707.751     273.094    -501.856
  C     -707.468     272.886    -503.142
  N     -706.130     273.102    -503.433
  O     -710.101     269.397    -504.894
  O     -710.184     270.252    -507.308
  H     -702.578     271.641    -505.476
  H     -711.048     269.623    -504.992
  H     -702.946     274.293    -500.527
  H     -708.198     272.573    -503.889
  H     -705.057     273.987    -504.931
  H     -704.005     271.623    -503.777
  H     -705.811     270.235    -504.706
  H     -705.368     271.854    -507.289
  H     -707.801     271.372    -507.634
  H     -706.667     273.902    -497.985
  H     -707.981     273.440    -499.096
  H     -706.821     269.902    -507.644
  P     -704.664     268.250    -505.877
  C     -703.169     268.096    -503.780
  O     -703.358     267.677    -505.119
  O     -704.497     267.680    -507.361
  O     -705.975     267.974    -505.192
  H     -703.685     268.005    -507.790
  H     -702.274     267.602    -503.393
  H     -704.030     267.802    -503.163
  H     -703.037     269.191    -503.742
  H     -709.437     266.481    -508.080
  H     -709.333     268.090    -508.753
  H     -710.757     267.606    -507.864

 3  4  5  6  7  8  9  10  11  12  22  25  29  30  31  32 0
 6-311+G(2d,p)
 ****
 33  36  37 0
 6-311+G(2d,p)
 ****
 1  2  13  14  15  16  17  18  19  20  21  23  24  26 0
 3-21G
 ****
 27  28  34  35  38  39  40  41  42  43  44  45  46  47  48 0
 3-21G
 ****


