%nproc=1
%NoSave
%Mem=1900MB
#P OB98/GEN NMR

erre ene a

0 1
  C     -191.988    -432.804    -264.934
  O     -192.076    -433.108    -266.313
  H     -192.942    -433.044    -264.458
  H     -191.792    -431.734    -264.800
  H     -191.197    -433.394    -264.462
  P     -190.726    -432.989    -267.170
  C     -192.085    -432.514    -269.368
  O     -191.065    -432.104    -268.468
  C     -192.087    -431.622    -270.611
  O     -192.559    -430.295    -270.298
  C     -190.689    -431.379    -271.188
  O     -190.158    -432.523    -271.822
  C     -190.991    -430.229    -272.139
  O     -191.587    -430.695    -273.354
  C     -192.015    -429.408    -271.310
  N     -191.417    -428.216    -270.714
  C     -191.094    -427.182    -271.606
  O     -191.322    -427.307    -272.814
  N     -190.494    -426.050    -271.113
  C     -190.260    -425.940    -269.839
  N     -189.655    -424.798    -269.411
  C     -190.601    -426.992    -268.866
  C     -191.171    -428.092    -269.370
  O     -190.567    -434.463    -267.779
  O     -189.534    -432.497    -266.411
  H     -190.982    -431.366    -273.723
  H     -191.353    -434.776    -268.254
  H     -190.395    -426.855    -267.809
  H     -191.456    -428.913    -268.711
  H     -192.853    -429.081    -271.943
  H     -190.087    -429.685    -272.415
  H     -190.018    -431.006    -270.409
  H     -192.758    -432.064    -271.355
  H     -189.412    -424.110    -270.121
  H     -193.066    -432.491    -268.883
  H     -189.390    -424.616    -268.463
  H     -191.880    -433.555    -269.651
  P     -188.574    -432.689    -272.009
  C     -188.957    -434.674    -273.609
  O     -188.371    -433.392    -273.442
  O     -187.866    -433.358    -270.884
  O     -188.081    -431.188    -272.293
  H     -188.478    -430.771    -273.082
  H     -188.754    -435.033    -274.596
  H     -190.015    -434.604    -273.466
  H     -188.544    -435.351    -272.891

 6  7  8  9  10  11  12  13  14  15  16  26  30  31  32  33  35 0
 6-311+G(2d,p)
 ****
 37  38 0
 6-311+G(2d,p)
 ****
 1  2  3  4  5  17  18  19  20  21  22  23  24  25 0
 3-21G
 ****
 27  28  29  34  36  39  40  41  42  43  44  45  46 0
 3-21G
 ****


