%nproc=1
%NoSave
%Mem=1900MB
#P OB98/GEN NMR

erre ene a

0 1
  C      -87.671       3.103     118.002
  O      -88.935       2.596     117.626
  H      -87.643       4.174     117.783
  H      -86.881       2.606     117.432
  H      -87.505       2.957     119.074
  P      -89.199       1.037     117.906
  C      -88.880       0.370     115.411
  O      -88.423       0.235     116.752
  C      -87.786      -0.078     114.444
  O      -86.573       0.659     114.715
  C      -87.408      -1.551     114.568
  O      -88.336      -2.395     113.908
  C      -86.025      -1.554     113.929
  O      -86.104      -1.636     112.501
  C      -85.463      -0.188     114.345
  N      -80.535      -0.670     115.563
  C      -81.162      -0.522     114.374
  N      -82.485      -0.380     114.137
  C      -83.174      -0.393     115.290
  C      -82.675      -0.544     116.572
  C      -81.282      -0.684     116.691
  N      -80.647      -0.872     117.897
  N      -83.701      -0.553     117.496
  C      -84.802      -0.401     116.785
  N      -84.528      -0.296     115.448
  O      -90.743       0.861     117.516
  O      -88.917       0.584     119.300
  H      -85.190      -1.556     112.164
  H      -91.294       0.943     118.318
  H      -80.518      -0.520     113.498
  H      -85.807      -0.370     117.186
  H      -84.936       0.311     113.521
  H      -85.433      -2.405     114.270
  H      -87.311      -1.831     115.625
  H      -88.107       0.157     113.420
  H      -89.124       1.422     115.216
  H      -89.783      -0.236     115.281
  H      -79.645      -0.989     117.905
  H      -81.204      -0.991     118.733
  P      -88.638      -3.837     114.535
  C      -87.149      -4.852     112.659
  O      -87.484      -4.836     114.039
  O      -89.934      -4.323     113.733
  O      -88.861      -3.842     116.012
  H      -90.738      -4.186     114.267
  H      -86.369      -5.564     112.490
  H      -86.815      -3.880     112.362
  H      -88.011      -5.124     112.086

 6  7  8  9  10  11  12  13  14  15  25  28  32  33  34  35 0
 6-311+G(2d,p)
 ****
 36  37  40 0
 6-311+G(2d,p)
 ****
 1  2  3  4  5  16  17  18  19  20  21  22  23  24 0
 3-21G
 ****
 26  27  29  30  31  38  39 41  42  43  44  45  46  47  48 0
 3-21G
 ****


