%nproc=1
%NoSave
%Mem=1900MB
#P OB98/GEN NMR

erre ene a

0 1
  C      372.642     375.629     -44.330
  O      371.848     374.492     -44.612
  H      372.040     376.342     -43.761
  H      372.968     376.104     -45.261
  H      373.513     375.339     -43.733
  P      372.517     373.365     -45.545
  C      371.296     371.476     -44.218
  O      371.474     372.143     -45.461
  C      369.817     371.179     -43.992
  O      369.064     372.411     -43.873
  C      369.149     370.403     -45.124
  O      369.444     369.017     -45.106
  C      367.687     370.669     -44.793
  O      367.294     369.873     -43.661
  C      367.737     372.170     -44.432
  N      367.496     373.045     -45.585
  C      366.162     373.361     -45.867
  O      365.252     372.913     -45.175
  N      365.887     374.150     -46.962
  C      366.856     374.608     -47.694
  N      366.518     375.383     -48.763
  C      368.274     374.315     -47.424
  C      368.522     373.542     -46.369
  O      373.747     372.837     -44.665
  O      372.878     373.791     -46.928
  H      366.458     370.249     -43.333
  H      374.140     372.035     -45.088
  H      369.052     374.709     -48.068
  H      369.545     373.282     -46.106
  H      367.005     372.414     -43.652
  H      367.007     370.422     -45.609
  H      369.372     370.840     -46.104
  H      369.722     370.648     -43.035
  H      365.533     375.517     -48.952
  H      371.679     372.128     -43.418
  H      367.188     375.660     -49.471
  H      371.860     370.538     -44.211
  P      370.466     368.461     -46.216
  C      370.612     366.199     -44.941
  O      370.381     366.866     -46.180
  O      371.900     368.777     -45.580
  O      370.309     369.078     -47.571
  H      372.551     369.001     -46.278
  H      370.520     365.142     -45.082
  H      369.893     366.527     -44.220
  H      371.597     366.427     -44.591

 6  7  8  9  10  11  12  13  14  15  16  26  30  31  32  33  35 0
 6-311+G(2d,p)
 ****
 37  38 0
 6-311+G(2d,p)
 ****
 1  2  3  4  5  17  18  19  20  21  22  23  24  25 0
 3-21G
 ****
 27  28  29  34  36  39  40  41  42  43  44  45  46 0
 3-21G
 ****


