%nproc=1
%NoSave
%Mem=1900MB
#P OB98/GEN NMR

erre ene a

0 1
  C      -48.764      10.942      67.778
  O      -49.120      11.587      66.553
  P      -49.303      13.180      66.618
  C      -46.800      13.820      66.380
  O      -47.952      13.810      67.210
  C      -46.667      15.161      65.655
  O      -46.359      16.242      66.555
  C      -45.570      15.171      64.600
  O      -46.029      14.543      63.416
  C      -45.319      16.663      64.427
  O      -46.262      17.251      63.508
  C      -45.542      17.210      65.847
  N      -42.685      20.797      68.006
  C      -43.791      20.919      67.186
  N      -44.209      22.176      66.926
  N      -44.429      19.901      66.672
  C      -43.900      18.704      67.018
  C      -42.828      18.455      67.842
  C      -42.128      19.590      68.404
  O      -41.158      19.534      69.151
  N      -42.626      17.107      68.010
  C      -43.496      16.552      67.187
  N      -44.336      17.472      66.611
  O      -50.372      13.380      67.792
  O      -49.778      13.776      65.335
  H      -46.274      18.216      63.639
  H      -51.221      13.682      67.418
  H      -42.227      21.616      68.367
  H      -43.577      15.493      66.993
  H      -46.103      18.152      65.830
  H      -44.326      16.864      64.018
  H      -43.768      23.006      67.291
  H      -44.669      14.680      64.988
  H      -45.024      22.287      66.333
  H      -47.635      15.378      65.185
  H      -46.859      13.011      65.649
  H      -45.918      13.622      66.998
  P      -44.997      13.620      62.609
  C      -45.681      11.281      63.498
  O      -44.721      12.318      63.497
  O      -43.627      14.445      62.698
  O      -45.378      13.360      61.189
  H      -43.190      14.448      61.825
  H      -45.172      10.329      63.673
  H      -46.219      11.225      62.547
  H      -46.396      11.454      64.307
  H      -48.671       9.889      67.613
  H      -49.524      11.122      68.510
  H      -47.831      11.332      68.129

 3  4  5  6  7  8  9  10  11  12  23  26  30  31 0
 6-311+G(2d,p)
 ****
 33  35  36  37  38 0
 6-311+G(2d,p)
 ****
 1  2  13  14  15  16  17  18  19  20  21  22  24  25 0
 3-21G
 ****
 27  28  29  32  34  39  40  41  42  43  44  45  46  47  48  49 0
 3-21G
 ****


