%nproc=1
%NoSave
%Mem=1900MB
#P OB98/GEN NMR

erre ene a

0 1
  C      723.594       9.779     981.242
  O      723.742       9.203     979.930
  P      724.313       7.741     979.676
  C      721.859       7.247     979.025
  O      723.087       6.713     979.497
  C      720.905       6.134     978.527
  O      721.367       5.610     977.262
  C      720.806       4.931     979.454
  O      719.990       5.226     980.580
  C      720.221       3.893     978.506
  O      718.799       4.024     978.375
  C      720.932       4.239     977.171
  N      722.036       3.341     976.875
  C      721.772       2.295     975.977
  O      720.648       2.124     975.536
  N      722.807       1.449     975.634
  C      723.966       1.598     976.190
  N      724.961       0.738     975.797
  C      724.260       2.634     977.205
  C      723.272       3.474     977.485
  O      725.333       7.291     980.686
  O      724.957       7.779     978.208
  H      718.652       4.882     977.930
  H      725.704       7.157     978.185
  H      725.245       2.695     977.664
  H      723.397       4.266     978.214
  H      720.210       4.210     976.337
  H      720.417       2.852     978.837
  H      721.814       4.611     979.782
  H      719.922       6.587     978.360
  H      724.713       0.045     975.107
  H      722.078       7.920     978.198
  H      725.899       0.763     976.162
  H      721.393       7.821     979.822
  P      720.670       5.543     981.997
  C      719.877       7.985     981.810
  O      720.982       7.120     982.041
  O      721.836       4.653     982.364
  O      719.475       5.380     983.055
  H      719.846       5.052     983.891
  H      720.096       8.952     982.256
  H      718.966       7.572     982.239
  H      719.757       8.104     980.725
  H      723.192      10.767     981.155
  H      724.549       9.824     981.722
  H      722.931       9.174     981.824

 3  4  5  6  7  8  9  10  11  12  13  23  27  28  29  30  32 0
 6-311+G(2d,p)
 ****
 34  35 0
 6-311+G(2d,p)
 ****
 1  2  14  15  16  17  18  19  20  21  22  24  25  26 0
 3-21G
 ****
 31  33  36  37  38  39  40  41  42  43  44  45  46 0
 3-21G
 ****


