%nproc=1
%NoSave
%Mem=1900MB
#P OB98/GEN NMR

erre ene a

0 1
  C       48.411    -140.172      56.947
  O       49.777    -139.976      56.587
  P       50.104    -139.203      55.220
  C       49.910    -141.295      53.721
  O       50.753    -140.246      54.187
  C       50.225    -141.630      52.253
  O       49.962    -140.457      51.438
  C       51.684    -142.010      51.975
  O       52.059    -143.380      52.089
  C       51.810    -141.646      50.497
  O       51.304    -142.723      49.686
  C       50.907    -140.424      50.347
  N       51.666    -136.005      47.884
  C       50.860    -137.058      47.623
  N       50.719    -138.199      48.329
  C       51.506    -138.187      49.416
  C       52.376    -137.184      49.813
  C       52.445    -136.048      48.989
  N       53.271    -134.980      49.247
  N       53.023    -137.532      50.979
  C       52.566    -138.734      51.270
  N       51.637    -139.168      50.365
  O       50.824    -137.905      55.361
  O       48.643    -138.976      54.597
  H       51.182    -142.360      48.789
  H       48.618    -138.101      54.160
  H       50.251    -136.977      46.726
  H       52.878    -139.323      52.121
  H       50.331    -140.444      49.416
  H       52.849    -141.487      50.195
  H       52.367    -141.391      52.569
  H       49.559    -142.434      51.918
  H       48.865    -140.993      53.813
  H       53.294    -134.223      48.584
  H       53.902    -135.020      50.037
  H       50.052    -142.148      54.385
  P       52.254    -144.076      53.518
  C       54.790    -143.440      53.609
  O       53.809    -144.453      53.604
  O       51.324    -145.203      53.806
  O       52.130    -142.841      54.526
  H       52.862    -142.203      54.474
  H       55.751    -143.883      53.886
  H       54.540    -142.661      54.334
  H       54.879    -143.007      52.610
  H       48.359    -140.699      57.877
  H       47.920    -140.742      56.186
  H       47.929    -139.222      57.048

 3  4  5  6  7  8  9  10  11  12  22  25  29  30  31  32 0
 6-311+G(2d,p)
 ****
 33  36  37 0
 6-311+G(2d,p)
 ****
 1  2  13  14  15  16  17  18  19  20  21  23  24  26 0
 3-21G
 ****
 27  28  34  35  38  39  40  41  42  43  44  45  46  47  48 0
 3-21G
 ****


