%nproc=1
%NoSave
%Mem=1900MB
#P OB98/GEN NMR

erre ene a

0 1
  C       72.948    -411.164      45.164
  O       73.899    -411.196      44.123
  H       72.476    -412.147      45.235
  H       72.179    -410.421      44.935
  H       73.413    -410.927      46.124
  P       75.031    -410.066      44.080
  C       76.257    -411.440      45.887
  O       75.857    -410.146      45.456
  C       77.670    -411.433      46.475
  O       78.058    -412.770      46.857
  C       78.716    -410.958      45.467
  O       78.867    -409.556      45.365
  C       79.985    -411.608      46.007
  O       80.589    -410.788      47.024
  C       79.468    -412.917      46.609
  N       82.554    -416.801      45.389
  C       82.749    -415.794      46.314
  N       83.940    -415.790      46.952
  N       81.860    -414.870      46.570
  C       80.758    -414.945      45.789
  C       80.459    -415.887      44.830
  C       81.427    -416.939      44.593
  O       81.306    -417.850      43.779
  N       79.241    -415.637      44.244
  C       78.842    -414.510      44.792
  N       79.715    -414.064      45.758
  O       74.207    -408.701      44.251
  O       75.863    -410.039      42.834
  H       80.442    -409.854      46.792
  H       74.694    -407.964      43.841
  H       83.260    -417.501      45.253
  H       77.918    -413.992      44.551
  H       79.943    -413.127      47.578
  H       80.738    -411.742      45.224
  H       84.698    -416.408      46.705
  H       78.509    -411.381      44.478
  H       84.223    -414.933      47.432
  H       77.679    -410.821      47.385
  H       76.222    -412.088      45.010
  H       75.543    -411.835      46.613
  P       79.941    -408.936      44.348
  C       78.292    -407.700      42.759
  O       79.201    -408.763      42.935
  O       80.947    -410.157      44.107
  O       80.649    -407.722      44.844
  H       81.720    -410.076      44.691
  H       77.893    -407.732      41.767
  H       78.798    -406.769      42.910
  H       77.495    -407.791      43.467

 6  7  8  9  10  11  12  13  14  15  26  29  33  34 0
 6-311+G(2d,p)
 ****
 36  38  39  40  41 0
 6-311+G(2d,p)
 ****
 1  2  3  4  5  16  17  18  19  20  21  22  23  24  25 0
 3-21G
 ****
 27  28  30  31  32  35  37  42  43  44  45  46  47 0
 3-21G
 ****
 48  49 0
 3-21G
 ****


