%nproc=1
%NoSave
%Mem=1900MB
#P OB98/GEN NMR

erre ene a

0 1
  C      322.440     109.114     -70.487
  O      321.574     109.974     -71.233
  P      321.360     111.447     -70.628
  C      321.292     112.585     -72.958
  O      320.602     112.321     -71.744
  C      320.352     113.200     -73.998
  O      319.500     112.173     -74.592
  C      319.421     114.284     -73.430
  O      319.251     115.266     -74.461
  C      318.136     113.509     -73.202
  O      316.999     114.343     -73.026
  C      318.136     112.632     -74.450
  N      313.456     111.001     -75.673
  C      314.080     112.184     -75.869
  N      315.332     112.540     -75.507
  C      315.953     111.522     -74.883
  C      315.445     110.265     -74.606
  C      314.126     110.012     -75.030
  N      313.473     108.822     -74.814
  N      316.382     109.498     -73.928
  C      317.403     110.319     -73.740
  N      317.223     111.517     -74.372
  O      322.837     112.057     -70.596
  O      320.709     111.451     -69.284
  H      316.217     113.796     -72.821
  H      323.215     111.994     -69.698
  H      313.499     112.944     -76.384
  H      318.287     110.091     -73.163
  H      317.878     113.195     -75.351
  H      318.234     112.898     -72.298
  H      319.810     114.770     -72.534
  H      320.962     113.622     -74.809
  H      321.715     111.660     -73.355
  H      312.526     108.740     -75.148
  H      313.936     108.066     -74.330
  H      322.141     113.244     -72.744
  P      319.407     116.817     -74.086
  C      320.731     117.232     -76.246
  O      319.574     117.561     -75.499
  O      320.920     116.836     -73.546
  O      318.407     117.367     -73.130
  H      321.522     116.395     -74.169
  H      320.677     117.737     -77.212
  H      320.784     116.152     -76.412
  H      321.626     117.573     -75.711
  H      322.510     108.166     -70.977
  H      322.045     108.978     -69.502
  H      323.413     109.555     -70.424

 3  4  5  6  7  8  9  10  11  12  22  25  29  30  31  32 0
 6-311+G(2d,p)
 ****
 33  36  37 0
 6-311+G(2d,p)
 ****
 1  2  13  14  15  16  17  18  19  20  21  23  24  26 0
 3-21G
 ****
 27  28  34  35  38  39  40  41  42  43  44  45  46  47  48 0
 3-21G
 ****


