%nproc=1
%NoSave
%Mem=1900MB
#P OB98/GEN NMR

erre ene a

0 1
  C     -893.550     362.422    -188.303
  O     -894.110     363.726    -188.198
  P     -895.070     364.313    -189.330
  C     -893.280     365.799    -190.445
  O     -894.480     365.768    -189.698
  C     -893.040     367.182    -191.055
  O     -894.090     367.520    -191.989
  C     -893.020     368.321    -190.034
  O     -891.790     368.334    -189.327
  C     -893.280     369.517    -190.927
  O     -892.060     369.955    -191.540
  C     -894.240     368.970    -191.981
  N     -895.650     369.337    -191.738
  C     -896.320     369.865    -192.841
  O     -895.730     370.004    -193.928
  N     -897.620     370.260    -192.675
  C     -898.190     370.174    -191.502
  N     -899.500     370.582    -191.433
  C     -897.510     369.649    -190.319
  C     -896.230     369.272    -190.516
  O     -896.530     364.289    -189.002
  O     -894.680     363.444    -190.609
  H     -892.230     370.912    -191.822
  H     -895.040     362.525    -190.545
  H     -898.000     369.591    -189.383
  H     -895.650     368.876    -189.667
  H     -893.960     369.310    -192.973
  H     -893.690     370.387    -190.353
  H     -893.870     368.176    -189.332
  H     -892.080     367.159    -191.607
  H     -899.900     370.965    -192.279
  H     -893.370     365.055    -191.263
  H     -900.000     370.584    -190.577
  H     -892.440     365.508    -189.823
  P     -891.790     368.565    -187.735
  C     -892.080     371.112    -187.969
  O     -891.240     370.063    -187.460
  O     -891.120     367.504    -186.943
  O     -893.350     368.667    -187.368
  H     -893.520     368.137    -186.575
  H     -891.760     372.033    -187.455
  H     -893.130     370.909    -187.789
  H     -891.870     371.240    -189.010
  H     -892.941     362.225    -187.445
  H     -892.951     362.361    -189.187
  H     -894.337     361.699    -188.355

 3  4  5  6  7  8  9  10  11  12  13  23  27  28  29  30  32 0
 6-311+G(2d,p)
 ****
 34  35 0
 6-311+G(2d,p)
 ****
 1  2  14  15  16  17  18  19  20  21  22  24  25  26 0
 3-21G
 ****
 31  33  36  37  38  39  40  41  42  43  44  45  46 0
 3-21G
 ****


