%nproc=1
%NoSave
%Mem=1900MB
#P OB98/GEN NMR

erre ene a

0 1
  C      591.752    -586.128     369.220
  O      591.597    -587.406     369.853
  P      591.679    -588.714     368.930
  C      589.336    -589.536     369.716
  O      590.716    -589.837     369.556
  C      588.489    -590.786     369.421
  O      588.576    -591.185     368.032
  C      588.915    -592.011     370.238
  O      588.358    -592.002     371.550
  C      588.289    -593.140     369.418
  O      586.894    -593.243     369.727
  C      588.482    -592.639     367.986
  N      590.234    -595.508     364.194
  C      588.929    -595.158     364.533
  N      587.952    -595.654     363.741
  N      588.621    -594.407     365.541
  C      589.700    -593.971     366.250
  C      591.035    -594.249     366.020
  C      591.364    -595.092     364.890
  O      592.497    -595.443     364.554
  N      591.835    -593.626     366.948
  C      591.002    -592.964     367.728
  N      589.682    -593.171     367.357
  O      593.152    -589.286     369.247
  O      591.501    -588.452     367.464
  H      586.596    -594.129     369.398
  H      593.491    -589.777     368.483
  H      590.414    -596.086     363.402
  H      591.284    -592.350     368.563
  H      587.646    -592.887     367.334
  H      588.743    -594.110     369.636
  H      588.129    -596.195     362.899
  H      590.016    -592.116     370.251
  H      587.000    -595.382     363.953
  H      587.448    -590.550     369.666
  H      589.043    -588.730     369.035
  H      589.166    -589.169     370.731
  P      589.251    -591.381     372.736
  C      590.696    -593.488     373.133
  O      589.710    -592.618     373.636
  O      588.137    -590.627     373.632
  O      590.319    -590.446     372.288
  H      588.551    -589.865     374.064
  H      591.005    -594.182     373.927
  H      591.570    -592.945     372.786
  H      590.284    -594.092     372.302
  H      591.675    -585.354     369.955
  H      590.986    -585.999     368.484
  H      592.711    -586.077     368.749

 3  4  5  6  7  8  9  10  11  12  23  26  30  31 0
 6-311+G(2d,p)
 ****
 33  35  36  37  38 0
 6-311+G(2d,p)
 ****
 1  2  13  14  15  16  17  18  19  20  21  22  24  25 0
 3-21G
 ****
 27  28  29  32  34  39  40  41  42  43  44  45  46  47  48  49 0
 3-21G
 ****


