%nproc=1
%NoSave
%Mem=1900MB
#P OB98/GEN NMR

erre ene a

0 1
  C      106.855     -16.277     -94.631
  O      108.261     -16.270     -94.776
  H      106.591     -16.647     -93.638
  H      106.486     -15.254     -94.735
  H      106.388     -16.900     -95.398
  P      108.987     -17.688     -94.960
  C      109.102     -17.465     -97.543
  O      108.608     -18.202     -96.435
  C      110.356     -18.127     -98.109
  O      110.010     -19.469     -98.554
  C      110.981     -17.383     -99.300
  O      112.405     -17.458     -99.184
  C      110.539     -18.208    -100.495
  O      111.416     -18.079    -101.607
  C      110.510     -19.610     -99.895
  N      110.271     -22.229    -104.246
  C      111.306     -21.670    -103.586
  N      111.290     -21.033    -102.398
  C      110.060     -21.064    -101.858
  C      108.910     -21.602    -102.408
  C      109.044     -22.194    -103.676
  N      107.983     -22.705    -104.387
  N      107.830     -21.385    -101.573
  C      108.318     -20.706    -100.553
  N      109.660     -20.487    -100.682
  O      108.129     -18.641     -93.998
  O      110.439     -17.717     -94.623
  H      112.337     -18.175    -101.296
  H      108.494     -18.608     -93.096
  H      112.273     -21.731    -104.080
  H      107.744     -20.327     -99.719
  H      111.505     -20.070     -99.848
  H      109.537     -17.892    -100.807
  H      110.671     -16.335     -99.378
  H      111.086     -18.237     -97.298
  H      109.353     -16.451     -97.214
  H      108.157     -23.011    -105.332
  H      107.049     -22.587    -104.025
  H      108.324     -17.402     -98.311
  P      113.141     -16.293     -98.365
  C      113.623     -17.435     -96.075
  O      112.839     -16.499     -96.805
  O      112.291     -14.989     -98.737
  O      114.584     -16.128     -98.714
  H      112.867     -14.204     -98.754
  H      113.298     -17.454     -95.056
  H      114.653     -17.147     -96.116
  H      113.508     -18.408     -96.504

 6  7  8  9  10  11  12  13  14  15  25  28  32  33  34  35 0
 6-311+G(2d,p)
 ****
 36  39  40 0
 6-311+G(2d,p)
 ****
 1  2  3  4  5  16  17  18  19  20  21  22  23  24 0
 3-21G
 ****
 26  27  29  30  31  37  38  41  42  43  44  45  46  47 0
 3-21G
 ****
 48 0
 3-21G
 ****


