%nproc=1
%NoSave
%Mem=1900MB
#P OB98/GEN NMR

erre ene a

0 1
  C       32.325      14.243     215.568
  O       31.307      13.683     216.386
  P       31.751      12.585     217.471
  C       29.252      11.901     217.619
  O       30.599      11.469     217.451
  C       28.307      11.043     216.787
  O       28.566      11.250     215.386
  C       28.450       9.545     217.012
  O       27.763       9.115     218.177
  C       27.792       8.997     215.752
  O       26.362       8.986     215.920
  C       28.199      10.032     214.692
  N       29.640       7.222     210.733
  C       28.383       7.414     211.270
  N       27.360       6.788     210.648
  N       28.149       8.151     212.325
  C       29.260       8.746     212.817
  C       30.559       8.633     212.375
  C       30.812       7.772     211.237
  O       31.912       7.514     210.757
  N       31.412       9.402     213.125
  C       30.629      10.007     213.993
  N       29.317       9.619     213.868
  O       31.511      13.335     218.865
  O       33.151      12.092     217.339
  H       26.088       9.907     216.093
  H       32.091      12.955     219.552
  H       29.761       6.660     209.910
  H       30.966      10.728     214.725
  H       27.357      10.280     214.035
  H       28.096       7.972     215.524
  H       27.458       6.319     209.761
  H       29.506       9.248     217.033
  H       26.427       6.947     211.005
  H       27.279      11.368     216.995
  H       29.165      12.944     217.295
  H       28.993      11.842     218.680
  P       28.498       8.002     219.073
  C       26.351       7.641     220.492
  O       27.321       7.070     219.634
  O       28.983       8.827     220.355
  O       29.624       7.305     218.387
  H       29.760       8.393     220.760
  H       26.118       8.670     220.204
  H       26.720       7.625     221.521
  H       25.437       7.047     220.434
  H       31.892      14.954     214.896
  H       32.800      13.465     215.007
  H       33.050      14.731     216.185

 3  4  5  6  7  8  9  10  11  12  23  26  30  31  33  0
 6-311+G(2d,p)
 ****
 35  36  37  38 0
 6-311+G(2d,p)
 ****
 1  2  13  14  15  16  17  18  19  20  21  22  24  25  27  28  29 0
 3-21G
 ****
 32  34  39  40  41  42  43  44  45  46  47  48  49 0
 3-21G
 ****


