%nproc=1
%NoSave
%Mem=1900MB
#P OB98/GEN NMR

erre ene a

0 1
  C      569.981     -58.262     171.178
  O      569.410     -57.718     172.356
  H      570.979     -58.636     171.418
  H      570.069     -57.487     170.410
  H      569.364     -59.090     170.810
  P      567.973     -57.001     172.192
  C      567.276     -58.128     174.441
  O      567.424     -56.926     173.706
  C      566.526     -57.858     175.742
  O      567.393     -57.184     176.693
  C      565.306     -56.951     175.591
  O      564.170     -57.611     175.067
  C      565.099     -56.548     177.049
  O      564.518     -57.650     177.770
  C      566.553     -56.295     177.494
  N      566.972     -54.893     177.308
  C      566.473     -53.966     178.230
  O      565.722     -54.316     179.140
  N      566.805     -52.636     178.078
  C      567.590     -52.269     177.109
  N      567.881     -50.937     177.011
  C      568.147     -53.218     176.121
  C      567.806     -54.488     176.279
  O      567.065     -58.143     171.546
  O      567.971     -55.705     171.449
  H      563.619     -57.785     177.409
  H      566.114     -57.856     171.540
  H      568.786     -52.868     175.321
  H      568.179     -55.253     175.596
  H      566.704     -56.564     178.553
  H      564.424     -55.699     177.173
  H      565.536     -56.048     175.012
  H      566.251     -58.825     176.189
  H      567.433     -50.311     177.661
  H      568.278     -58.533     174.658
  H      568.358     -50.541     176.209
  H      566.716     -58.865     173.850
  P      563.147     -56.741     174.178
  C      562.021     -58.720     172.908
  O      561.880     -57.678     173.867
  O      563.893     -56.647     172.765
  O      562.829     -55.396     174.740
  H      563.713     -55.787     172.334
  H      561.095     -59.248     172.816
  H      562.787     -59.396     173.226
  H      562.287     -58.299     171.961

 6  7  8  9  10  11  12  13  14  15  16  26  30  31  32  33  35 0
 6-311+G(2d,p)
 ****
 37  38 0
 6-311+G(2d,p)
 ****
 1  2  3  4  5  17  18  19  20  21  22  23  24  25 0
 3-21G
 ****
 27  28  29  34  36  39  40  41  42  43  44  45  46 0
 3-21G
 ****


