%nproc=1
%NoSave
%Mem=1900MB
#P OB98/GEN NMR

erre ene a

0 1
  C       37.887    -164.591      35.789
  O       38.806    -163.510      35.992
  P       39.558    -162.771      34.787
  C       38.581    -160.429      35.261
  O       39.758    -161.222      35.159
  C       38.754    -159.285      36.267
  O       38.621    -159.768      37.616
  C       40.110    -158.590      36.216
  O       40.198    -157.724      35.099
  C       40.133    -157.893      37.572
  O       39.406    -156.654      37.530
  C       39.410    -158.921      38.472
  N       40.337    -159.697      39.287
  C       40.940    -159.026      40.355
  O       40.725    -157.826      40.545
  N       41.790    -159.731      41.179
  C       42.074    -160.967      40.911
  N       42.911    -161.615      41.759
  C       41.532    -161.681      39.735
  C       40.674    -160.992      38.981
  O       38.935    -162.996      33.445
  O       41.054    -163.353      34.812
  H       38.510    -156.873      37.198
  H       41.408    -163.355      33.903
  H       41.812    -162.704      39.530
  H       40.224    -161.447      38.102
  H       38.703    -158.414      39.138
  H       41.147    -157.659      37.909
  H       40.911    -159.341      36.180
  H       37.947    -158.560      36.089
  H       43.261    -161.096      42.556
  H       37.760    -161.081      35.590
  H       43.197    -162.573      41.641
  H       38.336    -160.028      34.271
  P       41.586    -156.997      34.768
  C       42.036    -158.287      32.598
  O       41.779    -157.024      33.178
  O       42.766    -157.455      35.559
  O       41.276    -155.447      35.054
  H       42.095    -155.013      35.364
  H       41.754    -158.253      31.541
  H       41.468    -159.074      33.093
  H       43.106    -158.505      32.673
  H       37.512    -164.923      36.735
  H       38.390    -165.400      35.301
  H       37.073    -164.258      35.180

 3  4  5  6  7  8  9  10  11  12  13  23  27  28  29  30  32 0
 6-311+G(2d,p)
 ****
 34  35 0
 6-311+G(2d,p)
 ****
 1  2  14  15  16  17  18  19  20  21  22  24  25  26 0
 3-21G
 ****
 31  33  36  37  38  39  40  41  42  43  44  45  46 0
 3-21G
 ****


