%nproc=1
%NoSave
%Mem=1900MB
#P OB98/GEN NMR

erre ene a

0 1
  C      517.442     151.794     113.866
  O      516.909     151.119     112.746
  P      515.339     150.815     112.613
  C      513.818     148.791     113.076
  O      515.150     149.295     113.105
  C      513.747     147.391     113.690
  O      514.260     146.413     112.731
  C      514.540     147.220     114.997
  O      513.797     146.286     115.792
  C      515.833     146.594     114.507
  O      516.556     145.943     115.550
  C      515.320     145.684     113.386
  N      516.376     145.301     112.465
  C      516.676     143.937     112.370
  O      516.100     143.130     113.106
  N      517.640     143.531     111.490
  C      518.326     144.415     110.830
  N      519.270     143.950     109.966
  C      518.135     145.867     110.996
  C      517.142     146.238     111.806
  O      514.741     151.129     111.287
  O      514.693     151.648     113.820
  H      517.441     145.698     115.200
  H      514.642     152.607     113.590
  H      518.768     146.568     110.471
  H      516.922     147.284     111.988
  H      514.879     144.764     113.808
  H      516.485     147.379     114.094
  H      514.699     148.151     115.537
  H      512.689     147.150     113.863
  H      519.358     142.944     109.877
  H      513.499     148.737     112.036
  H      519.798     144.550     109.351
  H      513.149     149.480     113.603
  P      514.165     146.034     117.337
  C      515.487     144.188     118.510
  O      515.401     145.011     117.364
  O      513.009     145.649     118.200
  O      514.830     147.419     117.811
  H      514.844     147.443     118.785
  H      516.178     143.359     118.296
  H      514.511     143.776     118.776
  H      515.879     144.765     119.349
  H      518.502     151.891     113.753
  H      517.228     151.236     114.754
  H      517.001     152.766     113.940

 3  4  5  6  7  8  9  10  11  12  13  23  27  28  29  30  32 0
 6-311+G(2d,p)
 ****
 34  35 0
 6-311+G(2d,p)
 ****
 1  2  14  15  16  17  18  19  20  21  22  24  25  26 0
 3-21G
 ****
 31  33  36  37  38  39  40  41  42  43  44  45  46 0
 3-21G
 ****


