%nproc=1
%NoSave
%Mem=1900MB
#P OB98/GEN NMR

erre ene a

0 1
  C     -120.741     -95.473    1071.062
  O     -119.448     -94.857    1070.884
  P     -118.583     -95.029    1069.546
  C     -116.365     -94.152    1068.539
  O     -117.190     -94.244    1069.714
  C     -115.252     -93.120    1068.703
  O     -115.781     -91.765    1068.710
  C     -114.475     -93.229    1070.022
  O     -113.556     -94.321    1069.971
  C     -113.823     -91.850    1070.095
  O     -112.620     -91.802    1069.293
  C     -114.920     -90.953    1069.497
  N     -115.662     -90.222    1070.527
  C     -115.475     -88.840    1070.584
  O     -114.655     -88.302    1069.811
  N     -116.173     -88.108    1071.521
  C     -116.944     -88.722    1072.366
  N     -117.634     -87.952    1073.264
  C     -117.100     -90.197    1072.409
  C     -116.447     -90.862    1071.479
  O     -119.323     -94.696    1068.292
  O     -118.127     -96.575    1069.553
  H     -112.837     -92.217    1068.427
  H     -118.032     -96.872    1068.633
  H     -117.735     -90.659    1073.156
  H     -116.512     -91.947    1071.426
  H     -114.484     -90.216    1068.801
  H     -113.538     -91.579    1071.116
  H     -115.174     -93.353    1070.867
  H     -114.563     -93.201    1067.848
  H     -117.499     -86.942    1073.197
  H     -117.012     -93.852    1067.693
  H     -118.251     -88.324    1073.974
  H     -115.945     -95.140    1068.334
  P     -114.004     -95.752    1070.555
  C     -113.436     -98.133    1069.747
  O     -112.950     -96.837    1070.027
  O     -115.433     -96.112    1070.342
  O     -113.642     -95.665    1072.117
  H     -114.284     -96.208    1072.623
  H     -112.780     -98.638    1069.050
  H     -114.464     -98.092    1069.325
  H     -113.494     -98.717    1070.686
  H     -121.127     -95.220    1072.027
  H     -120.643     -96.536    1070.984
  H     -121.411     -95.120    1070.306

 3  4  5  6  7  8  9  10  11  12  13  23  27  28  29  30  32 0
 6-311+G(2d,p)
 ****
 34  35 0
 6-311+G(2d,p)
 ****
 1  2  14  15  16  17  18  19  20  21  22  24  25  26 0
 3-21G
 ****
 31  33  36  37  38  39  40  41  42  43  44  45  46 0
 3-21G
 ****


