%nproc=1
%NoSave
%Mem=1900MB
#P OB98/GEN NMR

erre ene a

0 1
  C     -110.589     502.159     -98.849
  O     -110.007     503.451     -98.922
  P     -108.614     503.606     -99.701
  C     -106.122     503.738     -99.019
  O     -107.466     503.624     -98.574
  C     -105.152     503.227     -97.958
  O     -105.103     504.194     -96.864
  C     -105.536     501.865     -97.352
  O     -104.360     501.048     -97.240
  C     -105.991     502.217     -95.946
  O     -105.841     501.123     -95.045
  C     -105.084     503.414     -95.652
  N     -104.549     504.088     -90.670
  C     -103.792     503.334     -91.544
  N     -102.783     502.615     -91.003
  N     -104.010     503.285     -92.833
  C     -105.026     504.080     -93.243
  C     -105.845     504.872     -92.473
  C     -105.637     504.878     -91.039
  O     -106.330     505.444     -90.201
  N     -106.760     505.551     -93.248
  C     -106.499     505.153     -94.480
  N     -105.489     504.226     -94.522
  O     -108.655     505.118    -100.220
  O     -108.404     502.647    -100.823
  H     -106.326     500.372     -95.435
  H     -108.532     505.134    -101.195
  H     -104.354     504.076     -89.681
  H     -107.032     505.487     -95.365
  H     -104.056     503.078     -95.472
  H     -107.052     502.507     -95.972
  H     -102.540     502.630     -90.025
  H     -106.307     501.323     -97.917
  H     -102.204     502.078     -91.627
  H     -104.146     503.190     -98.391
  H     -105.902     504.794     -99.227
  H     -105.999     503.162     -99.943
  P     -104.440     499.606     -97.934
  C     -104.636     497.255     -96.824
  O     -105.033     498.609     -96.821
  O     -102.901     499.169     -98.057
  O     -105.139     499.606     -99.256
  H     -102.785     498.526     -98.786
  H     -103.804     497.067     -97.512
  H     -105.479     496.639     -97.112
  H     -104.315     496.977     -95.809
  H     -111.508     502.212     -98.303
  H     -109.916     501.492     -98.351
  H     -110.782     501.798     -99.838

 3  4  5  6  7  8  9  10  11  12  23  26  30  31  33  0
 6-311+G(2d,p)
 ****
 35  36  37  38 0
 6-311+G(2d,p)
 ****
 1  2  13  14  15  16  17  18  19  20  21  22  24  25  27  28  29 0
 3-21G
 ****
 32  34  39  40  41  42  43  44  45  46  47  48  49 0
 3-21G
 ****


