%nproc=1
%NoSave
%Mem=1900MB
#P OB98/GEN NMR

erre ene a

0 1
  C      246.812     877.481    -513.037
  O      246.676     877.937    -514.368
  H      247.870     877.481    -512.776
  H      246.429     876.461    -512.951
  H      246.278     878.139    -512.345
  P      245.202     878.192    -514.951
  C      246.263     878.484    -517.282
  O      245.375     879.025    -516.310
  C      246.065     879.199    -518.618
  O      244.750     878.930    -519.143
  C      246.156     880.726    -518.516
  O      247.491     881.159    -518.378
  C      245.473     881.131    -519.811
  O      246.377     881.070    -520.916
  C      244.363     880.068    -519.945
  N      243.058     880.583    -519.535
  C      242.467     881.504    -520.393
  O      242.981     881.892    -521.447
  N      241.277     882.042    -519.965
  C      240.719     881.852    -518.733
  O      239.792     882.532    -518.297
  C      241.349     880.815    -517.898
  C      242.474     880.248    -518.328
  O      244.213     878.756    -513.980
  O      244.750     876.747    -515.475
  H      244.138     876.345    -514.827
  H      245.819     881.042    -521.722
  H      240.867     882.748    -520.561
  H      240.892     880.580    -516.945
  H      242.983     879.502    -517.718
  H      244.296     879.708    -520.981
  H      245.090     882.164    -519.755
  H      245.551     881.072    -517.666
  H      246.804     878.811    -519.331
  H      246.040     877.416    -517.410
  H      247.290     878.595    -516.924
  P      248.097     881.453    -516.925
  C      248.064     883.982    -517.439
  O      248.839     882.879    -516.967
  O      248.903     880.346    -516.331
  O      246.803     881.760    -516.020
  H      246.849     881.221    -515.213
  H      248.660     884.870    -517.421
  H      247.210     884.113    -516.808
  H      247.742     883.789    -518.441

 6  7  8  9  10  11  12  13  14  15  16  27  31  32  33  34  35 0
 6-311+G(2d,p)
 ****
 36  37 0
 6-311+G(2d,p)
 ****
 1  2  3  4  5  17  18  19  20  21  22  23  24  25 0
 3-21G
 ****
 26  28  29  30  38  39  40  41  42  43  44  45 0
 3-21G
 ****


