%nproc=1
%NoSave
%Mem=1900MB
#P OB98/GEN NMR

erre ene a

0 1
  C      -41.866    -288.051     -13.102
  O      -41.461    -286.696     -13.189
  P      -41.256    -285.990     -14.608
  C      -40.279    -283.908     -13.342
  O      -40.208    -284.800     -14.433
  C      -38.961    -283.127     -13.254
  O      -37.867    -284.027     -12.987
  C      -38.658    -282.389     -14.556
  O      -39.123    -281.051     -14.492
  C      -37.149    -282.501     -14.657
  O      -36.514    -281.500     -13.841
  C      -36.902    -283.910     -14.067
  N      -37.069    -285.076     -14.956
  C      -36.373    -286.250     -14.690
  O      -35.632    -286.401     -13.725
  N      -36.543    -287.263     -15.604
  C      -37.355    -287.219     -16.698
  O      -37.312    -288.021     -17.624
  C      -38.258    -286.069     -16.771
  C      -38.062    -285.056     -15.926
  O      -42.644    -285.230     -14.838
  O      -40.925    -286.907     -15.739
  H      -35.555    -281.678     -13.863
  H      -43.229    -285.748     -15.423
  H      -35.933    -288.067     -15.490
  H      -39.016    -286.057     -17.542
  H      -38.696    -284.175     -15.987
  H      -35.901    -283.981     -13.628
  H      -36.808    -282.324     -15.675
  H      -39.108    -282.919     -15.406
  H      -39.026    -282.417     -12.419
  H      -40.456    -284.463     -12.415
  H      -41.119    -283.219     -13.474
  P      -39.187    -280.171     -15.826
  C      -38.478    -278.374     -14.143
  O      -38.396    -278.821     -15.482
  O      -40.549    -279.985     -16.409
  O      -38.213    -280.954     -16.829
  H      -38.739    -281.529     -17.422
  H      -37.762    -277.561     -13.998
  H      -38.242    -279.186     -13.450
  H      -39.486    -277.996     -13.943
  H      -41.946    -288.334     -12.073
  H      -41.142    -288.672     -13.587
  H      -42.816    -288.171     -13.580

 3  4  5  6  7  8  9  10  11  12  13  23  28  29  30  31  32 0
 6-311+G(2d,p)
 ****
 33  34 0
 6-311+G(2d,p)
 ****
 1  2  14  15  16  17  18  19  20  21  22  24  25  26  27 0
 3-21G
 ****
 35  36  37  38  39  40  41  42  43  44  45 0
 3-21G
 ****


