%nproc=1
%NoSave
%Mem=1900MB
#P OB98/GEN NMR

erre ene a

0 1
  C     -765.391    1008.955     332.378
  O     -765.748    1008.600     333.697
  H     -765.537    1008.089     331.732
  H     -764.334    1009.249     332.344
  H     -766.011    1009.782     332.024
  P     -765.611    1009.755     334.812
  C     -768.213    1009.965     334.857
  O     -767.012    1009.792     335.587
  C     -769.271    1008.933     335.272
  O     -768.815    1007.609     334.865
  C     -769.511    1008.865     336.807
  O     -770.853    1008.453     337.021
  C     -768.553    1007.769     337.198
  O     -768.832    1007.321     338.521
  C     -768.779    1006.787     336.063
  N     -767.880    1001.924     334.816
  C     -768.994    1002.654     334.772
  N     -769.157    1003.957     335.102
  C     -767.996    1004.495     335.514
  C     -766.768    1003.868     335.603
  C     -766.715    1002.512     335.240
  N     -765.583    1001.736     335.298
  N     -765.799    1004.744     336.080
  C     -766.436    1005.887     336.243
  N     -767.759    1005.777     335.928
  O     -765.627    1011.104     333.949
  O     -764.406    1009.665     335.686
  H     -768.819    1008.060     339.155
  H     -764.720    1011.393     333.769
  H     -769.894    1002.144     334.411
  H     -765.980    1006.817     336.605
  H     -769.750    1006.289     336.145
  H     -767.516    1008.129     337.216
  H     -769.329    1009.841     337.306
  H     -770.201    1009.141     334.724
  H     -767.993    1009.855     333.784
  H     -768.606    1010.980     335.031
  H     -765.626    1000.767     335.031
  H     -764.721    1002.169     335.619
  P     -771.696    1009.107     338.239
  C     -773.555    1010.099     336.685
  O     -773.220    1009.257     337.790
  O     -771.198    1010.626     338.208
  O     -771.479    1008.493     339.574
  H     -771.257    1011.010     339.097
  H     -774.613    1010.078     336.529
  H     -773.058    1009.748     335.805
  H     -773.245    1011.102     336.894

 6  7  8  9  10  11  12  13  14  15  25  28  32  33  34  35 0
 6-311+G(2d,p)
 ****
 36  37  40 0
 6-311+G(2d,p)
 ****
 1  2  3  4  5  16  17  18  19  20  21  22  23  24 0
 3-21G
 ****
 26  27  29  30  31  38  39 41  42  43  44  45  46  47  48 0
 3-21G
 ****


