%nproc=1
%NoSave
%Mem=1900MB
#P OB98/GEN NMR

erre ene a

0 1
  C     1231.134    -211.887     -84.365
  O     1231.905    -213.071     -84.460
  H     1231.759    -211.042     -84.648
  H     1230.791    -211.741     -83.339
  H     1230.275    -211.936     -85.039
  P     1231.144    -214.459     -84.194
  C     1232.301    -215.329     -86.355
  O     1231.103    -215.228     -85.603
  C     1231.970    -215.670     -87.816
  O     1231.280    -216.939     -87.848
  C     1231.062    -214.627     -88.480
  O     1231.447    -214.486     -89.844
  C     1229.687    -215.268     -88.405
  O     1228.772    -214.787     -89.374
  C     1230.037    -216.750     -88.576
  N     1228.997    -217.637     -88.064
  C     1227.874    -217.835     -88.861
  O     1227.734    -217.368     -89.990
  N     1226.879    -218.586     -88.309
  C     1226.884    -219.146     -87.062
  O     1225.960    -219.809     -86.619
  C     1228.094    -218.910     -86.262
  C     1229.079    -218.176     -86.792
  O     1229.619    -214.007     -83.978
  O     1231.661    -215.272     -83.055
  H     1229.444    -213.828     -83.038
  H     1228.496    -213.885     -89.101
  H     1226.064    -218.742     -88.877
  H     1228.128    -219.323     -85.270
  H     1229.981    -217.959     -86.230
  H     1230.239    -216.974     -89.623
  H     1229.250    -215.088     -87.414
  H     1231.089    -213.656     -87.988
  H     1232.903    -215.793     -88.361
  H     1232.923    -216.127     -85.924
  H     1232.841    -214.379     -86.300
  P     1232.518    -213.330     -90.199
  C     1234.411    -215.022     -90.847
  O     1233.966    -213.994     -89.968
  O     1232.327    -212.354     -88.957
  O     1232.301    -212.732     -91.545
  H     1232.153    -212.803     -88.117
  H     1235.386    -215.347     -90.551
  H     1234.450    -214.644     -91.847
  H     1233.731    -215.847     -90.804

 6  7  8  9  10  11  12  13  14  15  16  27  31  32  33  34  35 0
 6-311+G(2d,p)
 ****
 36  37 0
 6-311+G(2d,p)
 ****
 1  2  3  4  5  17  18  19  20  21  22  23  24  25 0
 3-21G
 ****
 26  28  29  30  38  39  40  41  42  43  44  45 0
 3-21G
 ****


