%nproc=1
%NoSave
%Mem=1900MB
#P OB98/GEN NMR

erre ene a

0 1
  C     -119.982      69.864     132.086
  O     -120.940      68.862     131.811
  H     -119.670      69.774     133.130
  H     -120.413      70.856     131.930
  H     -119.108      69.734     131.442
  P     -121.610      68.895     130.351
  C     -121.778      66.317     129.992
  O     -122.454      67.527     130.296
  C     -122.536      65.133     130.583
  O     -122.038      64.818     131.904
  C     -124.033      65.366     130.764
  O     -124.768      65.258     129.557
  C     -124.358      64.239     131.727
  O     -124.373      62.986     131.017
  C     -123.156      64.321     132.690
  N     -123.403      65.194     133.841
  C     -123.973      64.597     134.972
  O     -124.248      63.398     134.978
  N     -124.254      65.382     136.063
  C     -123.972      66.648     136.040
  N     -124.275      67.374     137.150
  C     -123.360      67.315     134.878
  C     -123.104      66.540     133.827
  O     -120.382      68.589     129.372
  O     -122.383      70.124     130.012
  H     -123.548      62.951     130.498
  H     -120.714      68.440     128.453
  H     -123.154      68.376     134.901
  H     -122.654      66.960     132.935
  H     -122.879      63.326     133.061
  H     -125.333      64.344     132.203
  H     -124.235      66.323     131.259
  H     -122.343      64.262     129.946
  H     -124.748      66.900     137.908
  H     -120.770      66.370     130.419
  H     -124.233      68.385     137.174
  H     -121.699      66.192     128.908
  P     -125.874      66.386     129.265
  C     -124.570      67.830     127.536
  O     -125.625      66.906     127.770
  O     -125.391      67.612     130.169
  O     -127.282      65.981     129.574
  H     -126.155      68.115     130.512
  H     -124.536      68.076     126.495
  H     -123.639      67.391     127.829
  H     -124.741      68.718     128.108

 6  7  8  9  10  11  12  13  14  15  16  26  30  31  32  33  35 0
 6-311+G(2d,p)
 ****
 37  38 0
 6-311+G(2d,p)
 ****
 1  2  3  4  5  17  18  19  20  21  22  23  24  25 0
 3-21G
 ****
 27  28  29  34  36  39  40  41  42  43  44  45  46 0
 3-21G
 ****


