%nproc=1
%NoSave
%Mem=1900MB
#P OB98/GEN NMR

erre ene a

0 1
  C     -491.649     345.102    1008.808
  O     -492.538     346.177    1009.032
  H     -491.326     344.707    1009.777
  H     -490.767     345.455    1008.263
  H     -492.140     344.302    1008.244
  P     -493.321     346.761    1007.760
  C     -495.020     347.314    1009.649
  O     -494.572     347.590    1008.332
  C     -496.434     347.855    1009.841
  O     -496.364     349.278    1010.099
  C     -497.361     347.655    1008.622
  O     -498.681     347.377    1009.087
  C     -497.332     349.013    1007.946
  O     -498.464     349.271    1007.115
  C     -497.256     349.935    1009.169
  N     -496.788     351.275    1008.826
  C     -497.699     352.319    1008.885
  O     -498.857     352.205    1009.290
  N     -497.238     353.542    1008.461
  C     -495.986     353.799    1007.984
  O     -495.636     354.914    1007.591
  C     -495.064     352.665    1007.935
  C     -495.501     351.471    1008.352
  O     -494.006     345.468    1007.121
  O     -492.483     347.507    1006.775
  H     -493.405     345.049    1006.472
  H     -499.258     349.250    1007.706
  H     -497.894     354.305    1008.500
  H     -494.068     352.843    1007.540
  H     -494.842     350.592    1008.303
  H     -498.239     350.005    1009.655
  H     -496.435     349.115    1007.327
  H     -497.043     346.856    1007.936
  H     -496.879     347.392    1010.728
  H     -494.361     347.809    1010.369
  H     -494.990     346.232    1009.821
  P     -499.118     345.843    1009.214
  C     -500.819     345.644    1011.195
  O     -500.606     345.859    1009.809
  O     -498.205     345.367    1010.442
  O     -498.925     345.069    1007.953
  H     -498.070     346.072    1011.117
  H     -501.867     345.690    1011.406
  H     -500.309     346.399    1011.756
  H     -500.442     344.681    1011.469

 6  7  8  9  10  11  12  13  14  15  16  27  31  32  33  34  35 0
 6-311+G(2d,p)
 ****
 36  37 0
 6-311+G(2d,p)
 ****
 1  2  3  4  5  17  18  19  20  21  22  23  24  25 0
 3-21G
 ****
 26  28  29  30  38  39  40  41  42  43  44  45 0
 3-21G
 ****


