%nproc=1
%NoSave
%Mem=1900MB
#P OB98/GEN NMR

erre ene a

0 1
  C      252.924    -393.687     234.976
  O      254.240    -394.243     235.068
  P      254.645    -395.397     234.033
  C      254.589    -397.576     235.453
  O      253.930    -396.755     234.502
  C      253.755    -398.828     235.743
  O      252.644    -398.540     236.623
  C      253.145    -399.461     234.497
  O      254.072    -400.304     233.827
  C      252.032    -400.298     235.109
  O      252.578    -401.524     235.637
  C      251.539    -399.399     236.252
  N      246.513    -398.947     236.605
  C      247.361    -399.906     237.126
  N      246.782    -400.887     237.855
  N      248.654    -399.905     236.944
  C      249.094    -398.853     236.218
  C      248.357    -397.845     235.648
  C      246.921    -397.863     235.840
  O      246.123    -397.045     235.395
  N      249.158    -396.961     234.970
  C      250.381    -397.424     235.143
  N      250.393    -398.582     235.879
  O      256.182    -395.670     234.387
  O      254.462    -395.028     232.599
  H      253.105    -401.929     234.917
  H      256.650    -395.997     233.597
  H      245.522    -398.993     236.774
  H      251.276    -396.959     234.759
  H      251.253    -399.973     237.138
  H      251.271    -400.578     234.376
  H      245.801    -400.924     238.069
  H      252.722    -398.698     233.835
  H      247.393    -401.585     238.270
  H      254.404    -399.565     236.236
  H      254.767    -397.023     236.380
  H      255.581    -397.838     235.069
  P      254.361    -400.012     232.275
  C      252.876    -401.804     231.118
  O      253.029    -400.451     231.489
  O      255.430    -401.144     231.898
  O      254.873    -398.645     231.981
  H      256.032    -400.812     231.203
  H      251.860    -401.947     230.745
  H      253.031    -402.464     231.977
  H      253.580    -402.061     230.321
  H      252.802    -392.934     235.726
  H      252.199    -394.460     235.125
  H      252.788    -393.252     234.008

 3  4  5  6  7  8  9  10  11  12  23  26  30  31 0
 6-311+G(2d,p)
 ****
 33  35  36  37  38 0
 6-311+G(2d,p)
 ****
 1  2  13  14  15  16  17  18  19  20  21  22  24  25 0
 3-21G
 ****
 27  28  29  32  34  39  40  41  42  43  44  45  46  47  48  49 0
 3-21G
 ****


