%nproc=1
%NoSave
%Mem=1900MB
#P OB98/GEN NMR

erre ene a

0 1
  C     -612.885    -330.122     291.240
  O     -612.778    -330.678     292.548
  P     -613.116    -332.241     292.709
  C     -611.293    -333.127     294.343
  O     -611.748    -333.034     293.009
  C     -610.234    -332.036     294.619
  O     -610.756    -330.728     294.409
  C     -609.728    -332.051     296.056
  O     -608.792    -333.099     296.246
  C     -609.116    -330.652     296.180
  O     -607.722    -330.641     295.792
  C     -609.967    -329.821     295.191
  N     -610.789    -328.823     295.855
  C     -610.147    -327.644     296.246
  O     -608.939    -327.512     296.037
  N     -610.881    -326.677     296.880
  C     -612.137    -326.868     297.127
  N     -612.809    -325.874     297.769
  C     -612.850    -328.109     296.763
  C     -612.126    -329.050     296.133
  O     -613.481    -332.699     291.210
  O     -614.231    -332.534     293.664
  H     -607.360    -329.806     296.163
  H     -614.151    -333.412     291.226
  H     -613.895    -328.240     296.998
  H     -612.574    -329.993     295.834
  H     -609.314    -329.286     294.483
  H     -609.172    -330.282     297.210
  H     -610.562    -332.153     296.748
  H     -609.389    -332.201     293.922
  H     -612.295    -325.033     298.013
  H     -610.871    -334.119     294.545
  H     -613.781    -325.937     298.011
  H     -612.150    -333.008     295.011
  P     -609.366    -334.585     296.398
  C     -608.016    -335.668     294.497
  O     -609.289    -335.223     294.932
  O     -610.948    -334.327     296.554
  O     -608.829    -335.417     297.520
  H     -611.402    -335.156     296.760
  H     -608.133    -336.257     293.591
  H     -607.546    -336.302     295.264
  H     -607.366    -334.811     294.288
  H     -612.635    -329.082     291.273
  H     -613.888    -330.236     290.885
  H     -612.213    -330.630     290.580

 3  4  5  6  7  8  9  10  11  12  13  21  23  27  28  29  30  32 0
 6-311+G(2d,p)
 ****
 34  35 0
 6-311+G(2d,p)
 ****
 1  2  14  15  16  17  18  19  20  22  24  25  26 0
 3-21G
 ****
 31  33  36  37  38  39  40  41  42  43  44  45  46 0
 3-21G
 ****


