%nproc=1
%NoSave
%Mem=1900MB
#P OB98/GEN NMR

erre ene a

0 1
  C      195.467     219.059    -263.500
  O      195.896     217.708    -263.721
  P      195.535     217.061    -265.152
  C      195.324     214.675    -264.161
  O      195.949     215.511    -265.128
  C      196.281     213.596    -263.630
  O      197.230     213.193    -264.651
  C      197.090     214.047    -262.408
  O      197.280     212.897    -261.577
  C      198.426     214.444    -263.014
  O      199.455     214.436    -262.031
  C      198.557     213.384    -264.127
  N      199.511     213.764    -265.164
  C      200.190     212.732    -265.816
  O      200.029     211.558    -265.469
  N      201.067     213.046    -266.828
  C      201.291     214.290    -267.121
  N      202.169     214.541    -268.127
  C      200.637     215.415    -266.415
  C      199.770     215.089    -265.473
  O      196.606     217.726    -266.139
  O      194.138     217.342    -265.597
  H      200.293     214.723    -262.461
  H      196.162     218.087    -266.928
  H      200.865     216.443    -266.684
  H      199.247     215.838    -264.897
  H      198.892     212.420    -263.703
  H      198.365     215.448    -263.450
  H      196.610     214.843    -261.838
  H      195.685     212.715    -263.368
  H      202.589     213.745    -268.592
  H      194.452     214.194    -264.604
  H      202.417     215.466    -268.434
  H      194.943     215.298    -263.347
  P      196.295     212.687    -260.336
  C      198.089     212.335    -258.525
  O      197.095     211.717    -259.333
  O      195.222     211.656    -260.956
  O      195.632     213.879    -259.740
  H      194.508     211.499    -260.310
  H      198.464     211.599    -257.808
  H      197.660     213.180    -257.974
  H      198.922     212.676    -259.149
  H      195.764     219.372    -262.521
  H      194.402     219.113    -263.584
  H      195.915     219.700    -264.231

 3  4  5  6  7  8  9  10  11  12  13  21  23  27  28  29  30  32 0
 6-311+G(2d,p)
 ****
 34  35 0
 6-311+G(2d,p)
 ****
 1  2  14  15  16  17  18  19  20  22  24  25  26 0
 3-21G
 ****
 31  33  36  37  38  39  40  41  42  43  44  45  46 0
 3-21G
 ****


