%nproc=1
%NoSave
%Mem=1900MB
#P OB98/GEN NMR

erre ene a

0 1
  C     -172.961    -504.143      -3.539
  O     -173.420    -503.837      -4.839
  H     -173.637    -503.684      -2.814
  H     -171.960    -503.731      -3.393
  H     -172.946    -505.221      -3.368
  P     -172.788    -504.618      -6.088
  C     -175.179    -505.472      -6.547
  O     -174.001    -504.907      -7.101
  C     -175.606    -506.719      -7.327
  O     -176.504    -507.508      -6.495
  C     -176.344    -506.413      -8.637
  O     -176.049    -507.474      -9.553
  C     -177.796    -506.485      -8.197
  O     -178.663    -506.628      -9.300
  C     -177.739    -507.661      -7.220
  N     -178.904    -507.709      -6.332
  C     -179.920    -508.581      -6.691
  O     -179.894    -509.270      -7.713
  N     -181.005    -508.610      -5.858
  C     -181.192    -507.819      -4.763
  O     -182.199    -507.866      -4.068
  C     -180.100    -506.881      -4.461
  C     -179.022    -506.868      -5.242
  O     -171.959    -505.813      -5.753
  O     -171.946    -503.502      -6.867
  H     -179.595    -506.709      -8.994
  H     -171.182    -503.913      -7.315
  H     -181.751    -509.248      -6.099
  H     -180.221    -506.232      -3.602
  H     -178.195    -506.190      -5.045
  H     -177.693    -508.612      -7.768
  H     -178.087    -505.567      -7.672
  H     -176.075    -505.446      -9.070
  H     -174.722    -507.336      -7.511
  H     -175.972    -504.716      -6.594
  H     -175.000    -505.731      -5.498
  P     -174.582    -507.691     -10.164
  C     -172.942    -508.631      -8.409
  O     -173.894    -508.941      -9.424
  O     -173.736    -506.455     -10.189
  O     -174.830    -508.232     -11.651
  H     -174.083    -507.982     -12.223
  H     -172.556    -509.538      -7.993
  H     -173.415    -508.058      -7.639
  H     -172.140    -508.064      -8.833

 6  7  8  9  10  11  12  13  14  15  16  26  31  32  33  34  35 0
 6-311+G(2d,p)
 ****
 36  37 0
 6-311+G(2d,p)
 ****
 1  2  3  4  5  17  18  19  20  21  22  23  24  25 0
 3-21G
 ****
 27  28  29  30  38  39  40  41  42  43  44  45 0
 3-21G
 ****


