%nproc=1
%NoSave
%Mem=1900MB
#P OB98/GEN NMR

erre ene a

0 1
  C     -679.886     104.534    -574.122
  O     -679.161     105.596    -573.538
  P     -678.641     106.777    -574.497
  C     -676.184     106.229    -573.830
  O     -677.130     106.408    -574.885
  C     -674.845     105.755    -574.406
  O     -674.947     104.414    -574.906
  C     -674.342     106.582    -575.576
  O     -673.693     107.783    -575.161
  C     -673.318     105.625    -576.190
  O     -672.090     105.673    -575.449
  C     -674.015     104.262    -576.007
  N     -673.504     102.988    -580.875
  C     -672.531     103.184    -579.906
  N     -671.253     103.096    -580.310
  N     -672.809     103.451    -578.654
  C     -674.129     103.525    -578.391
  C     -675.182     103.337    -579.269
  C     -674.883     103.050    -580.652
  O     -675.687     102.919    -581.559
  N     -676.394     103.484    -578.634
  C     -676.077     103.759    -577.388
  N     -674.726     103.832    -577.190
  O     -678.474     108.022    -573.506
  O     -679.551     107.076    -575.649
  H     -672.322     105.449    -574.521
  H     -678.431     108.844    -574.020
  H     -673.251     102.777    -581.823
  H     -676.799     103.909    -576.590
  H     -673.300     103.480    -575.731
  H     -673.083     105.876    -577.232
  H     -670.974     102.950    -581.269
  H     -675.135     106.791    -576.303
  H     -670.521     103.301    -579.634
  H     -674.110     105.754    -573.585
  H     -676.558     105.502    -573.125
  H     -676.046     107.189    -573.308
  P     -673.262     108.808    -576.313
  C     -670.763     108.828    -575.598
  O     -671.713     108.508    -576.600
  O     -673.247     110.219    -575.544
  O     -674.165     108.819    -577.496
  H     -673.410     110.951    -576.182
  H     -669.815     108.333    -575.843
  H     -671.092     108.505    -574.618
  H     -670.582     109.906    -575.591
  H     -680.162     103.831    -573.364
  H     -679.277     104.047    -574.855
  H     -680.768     104.919    -574.590

 3  4  5  6  7  8  9  10  11  12  23  26  30  31 0
 6-311+G(2d,p)
 ****
 33  35  36  37  38 0
 6-311+G(2d,p)
 ****
 1  2  13  14  15  16  17  18  19  20  21  22  24  25 0
 3-21G
 ****
 27  28  29  32  34  39  40  41  42  43  44  45  46  47  48  49 0
 3-21G
 ****


