%nproc=1
%NoSave
%Mem=1900MB
#P OB98/GEN NMR

erre ene a

0 1
  C     -567.431    -897.510    -892.580
  O     -568.393    -898.500    -892.270
  H     -567.253    -897.530    -893.660
  H     -566.496    -897.720    -892.060
  H     -567.796    -896.520    -892.310
  P     -568.813    -898.610    -890.720
  C     -571.380    -898.510    -891.160
  O     -570.235    -897.890    -890.600
  C     -571.950    -897.650    -892.300
  O     -570.916    -897.440    -893.290
  C     -573.133    -898.300    -893.030
  O     -573.976    -897.250    -893.530
  C     -572.442    -899.000    -894.180
  O     -573.375    -899.390    -895.170
  C     -571.427    -897.930    -894.540
  N     -569.570    -898.140    -899.310
  C     -570.650    -897.500    -898.790
  N     -571.071    -897.480    -897.510
  C     -570.239    -898.180    -896.730
  C     -569.094    -898.870    -897.100
  C     -568.766    -898.820    -898.470
  N     -567.674    -899.460    -899.010
  N     -568.503    -899.480    -896.020
  C     -569.271    -899.170    -894.990
  N     -570.341    -898.390    -895.380
  O     -567.804    -897.600    -889.990
  O     -568.753    -899.990    -890.150
  H     -572.938    -899.450    -896.050
  H     -567.038    -898.100    -889.650
  H     -571.258    -896.950    -899.500
  H     -569.123    -899.470    -893.970
  H     -571.899    -897.080    -895.070
  H     -571.942    -899.920    -893.840
  H     -573.737    -898.960    -892.380
  H     -572.218    -896.670    -891.900
  H     -572.134    -898.630    -890.370
  H     -571.112    -899.500    -891.550
  H     -567.520    -899.390    -900.000
  H     -567.076    -900.000    -898.400
  P     -575.321    -896.870    -892.740
  C     -575.262    -894.290    -892.300
  O     -575.021    -895.600    -891.800
  O     -575.425    -898.060    -891.670
  O     -576.560    -896.790    -893.570
  H     -576.358    -898.200    -891.430
  H     -575.010    -893.570    -891.550
  H     -576.296    -894.191    -892.557
  H     -574.661    -894.124    -893.169

 6  7  8  9  10  11  12  13  14  15  25  28  32  33  34  35 0
 6-311+G(2d,p)
 ****
 36  37  40 0
 6-311+G(2d,p)
 ****
 1  2  3  4  5  16  17  18  19  20  21  22  23  24 0
 3-21G
 ****
 26  27  29  30  31  38  39 41  42  43  44  45  46  47  48 0
 3-21G
 ****


