%nproc=1
%NoSave
%Mem=1900MB
#P OB98/GEN NMR

erre ene a

0 1
  C     -122.906    -241.971     789.435
  O     -123.839    -241.464     788.503
  H     -123.213    -241.676     790.443
  H     -121.905    -241.567     789.244
  H     -122.873    -243.061     789.384
  P     -123.526    -241.632     786.943
  C     -125.369    -239.855     786.521
  O     -124.033    -240.276     786.252
  C     -125.469    -238.335     786.448
  O     -124.619    -237.726     787.447
  C     -125.017    -237.765     785.105
  O     -125.997    -237.973     784.114
  C     -124.747    -236.323     785.481
  O     -125.969    -235.570     785.542
  C     -124.125    -236.471     786.902
  N     -122.679    -236.441     786.888
  C     -122.082    -235.270     787.387
  O     -122.778    -234.354     787.805
  N     -120.712    -235.180     787.369
  C     -119.991    -236.159     786.915
  N     -118.642    -235.997     786.924
  C     -120.564    -237.415     786.392
  C     -121.899    -237.479     786.397
  O     -124.024    -242.883     786.281
  O     -121.927    -241.499     786.865
  H     -125.708    -234.651     785.773
  H     -121.504    -242.383     786.968
  H     -119.934    -238.204     786.029
  H     -122.408    -238.367     786.043
  H     -124.489    -235.677     787.563
  H     -124.081    -235.831     784.766
  H     -124.060    -238.224     784.816
  H     -126.507    -238.044     786.667
  H     -118.277    -235.107     787.284
  H     -125.617    -240.204     787.534
  H     -117.978    -236.724     786.683
  H     -126.074    -240.315     785.813
  P     -125.575    -238.169     782.568
  C     -127.851    -237.170     781.854
  O     -126.434    -237.066     781.763
  O     -125.668    -239.561     782.056
  O     -124.090    -237.564     782.530
  H     -123.436    -238.178     782.949
  H     -128.304    -236.388     781.281
  H     -128.150    -237.082     782.878
  H     -128.164    -238.119     781.471

 6  7  8  9  10  11  12  13  14  15  16  26  30  31  32  33  35 0
 6-311+G(2d,p)
 ****
 37  38 0
 6-311+G(2d,p)
 ****
 1  2  3  4  5  17  18  19  20  21  22  23  24  25 0
 3-21G
 ****
 27  28  29  34  36  39  40  41  42  43  44  45  46 0
 3-21G
 ****


