%nproc=1
%NoSave
%Mem=1900MB
#P OB98/GEN NMR

erre ene a

0 1
  C     -128.200     188.621     -38.174
  O     -129.418     187.956     -38.434
  H     -127.928     188.452     -37.128
  H     -128.306     189.699     -38.338
  H     -127.406     188.220     -38.811
  P     -130.098     188.146     -39.877
  C     -130.776     190.272     -41.200
  O     -130.484     189.709     -39.930
  C     -131.097     191.761     -41.057
  O     -129.972     192.480     -40.505
  C     -131.405     192.479     -42.370
  O     -132.689     192.170     -42.890
  C     -131.297     193.924     -41.913
  O     -132.473     194.284     -41.165
  C     -130.054     193.852     -40.987
  N     -128.815     194.230     -41.669
  C     -128.374     195.550     -41.490
  O     -129.020     196.334     -40.792
  N     -127.237     195.963     -42.139
  C     -126.598     195.133     -42.911
  N     -125.501     195.611     -43.569
  C     -127.015     193.734     -43.116
  C     -128.120     193.354     -42.475
  O     -131.206     187.204     -40.216
  O     -128.871     188.083     -40.908
  H     -133.243     194.021     -41.705
  H     -129.243     188.184     -41.818
  H     -126.454     193.092     -43.776
  H     -128.499     192.341     -42.585
  H     -130.188     194.495     -40.109
  H     -131.206     194.635     -42.740
  H     -130.625     192.286     -43.114
  H     -131.924     191.853     -40.339
  H     -125.269     196.587     -43.438
  H     -131.621     189.728     -41.629
  H     -125.127     195.132     -44.383
  H     -129.910     190.168     -41.865
  P     -132.861     192.122     -44.487
  C     -132.647     193.883     -46.402
  O     -132.752     193.639     -45.008
  O     -134.409     191.772     -44.668
  O     -131.965     191.163     -45.209
  H     -134.542     190.808     -44.774
  H     -132.584     194.937     -46.576
  H     -133.510     193.491     -46.899
  H     -131.768     193.405     -46.782

 6  7  8  9  10  11  12  13  14  15  16  26  30  31  32  33  35 0
 6-311+G(2d,p)
 ****
 37  38 0
 6-311+G(2d,p)
 ****
 1  2  3  4  5  17  18  19  20  21  22  23  24  25 0
 3-21G
 ****
 27  28  29  34  36  39  40  41  42  43  44  45  46 0
 3-21G
 ****


