%nproc=1
%NoSave
%Mem=1900MB
#P OB98/GEN NMR

erre ene a

0 1
  C     -188.654    -115.506     661.518
  O     -188.791    -114.121     661.258
  H     -189.563    -116.015     661.189
  H     -188.522    -115.682     662.587
  H     -187.798    -115.913     660.965
  P     -187.560    -113.188     661.692
  C     -188.371    -111.038     660.494
  O     -188.132    -111.686     661.736
  C     -189.169    -109.745     660.711
  O     -190.553    -110.039     661.004
  C     -188.648    -108.885     661.862
  O     -187.556    -108.076     661.446
  C     -189.882    -108.058     662.201
  O     -190.042    -106.951     661.290
  C     -191.014    -109.084     662.008
  N     -192.798    -108.511     666.699
  C     -192.593    -107.584     665.707
  N     -192.851    -106.293     666.017
  N     -192.161    -107.879     664.505
  C     -191.910    -109.199     664.339
  C     -192.088    -110.220     665.248
  C     -192.594    -109.881     666.565
  O     -192.850    -110.664     667.474
  N     -191.744    -111.433     664.703
  C     -191.321    -111.140     663.487
  N     -191.391    -109.790     663.228
  O     -186.613    -113.183     660.400
  O     -186.819    -113.636     662.911
  H     -190.822    -106.432     661.547
  H     -185.691    -113.083     660.685
  H     -193.144    -108.225     667.597
  H     -190.964    -111.859     662.759
  H     -191.939    -108.622     661.614
  H     -189.834    -107.639     663.197
  H     -192.861    -105.967     666.984
  H     -188.376    -109.511     662.729
  H     -192.691    -105.593     665.304
  H     -189.144    -109.183     659.768
  H     -188.962    -111.705     659.850
  H     -187.420    -110.813     660.011
  P     -186.266    -108.021     662.407
  C     -184.703    -107.399     660.429
  O     -185.219    -107.027     661.706
  O     -185.600    -109.466     662.225
  O     -186.570    -107.717     663.847
  H     -184.969    -109.635     662.963
  H     -184.022    -106.648     660.087
  H     -185.509    -107.494     659.732
  H     -184.190    -108.335     660.510

 6  7  8  9  10  11  12  13  14  15  26  29  33  34 0
 6-311+G(2d,p)
 ****
 36  38  39  40  41 0
 6-311+G(2d,p)
 ****
 1  2  3  4  5  16  17  18  19  20  21  22  23  24  25 0
 3-21G
 ****
 27  28  30  31  32  35  37  42  43  44  45  46  47 0
 3-21G
 ****
 48  49 0
 3-21G
 ****


