%nproc=1
%NoSave
%Mem=1900MB
#P OB98/GEN NMR

erre ene a

0 1
  C        2.581    -131.565     -29.913
  O        2.166    -130.273     -29.503
  P        1.324    -129.380     -30.532
  C       -1.019    -129.807     -29.486
  O       -0.160    -129.990     -30.603
  C       -2.479    -130.011     -29.904
  O       -2.814    -129.068     -30.968
  C       -2.790    -131.420     -30.425
  O       -4.135    -131.736     -30.037
  C       -2.727    -131.235     -31.931
  O       -3.399    -132.256     -32.650
  C       -3.355    -129.842     -32.054
  N       -3.089    -129.215     -33.351
  C       -3.906    -129.578     -34.414
  O       -4.825    -130.393     -34.332
  N       -3.590    -129.022     -35.625
  C       -2.514    -128.225     -35.890
  O       -2.222    -127.852     -37.019
  C       -1.685    -127.870     -34.723
  C       -2.008    -128.375     -33.528
  O        1.957    -129.760     -31.954
  O        1.379    -127.912     -30.273
  H       -2.872    -133.067     -32.572
  H        2.587    -129.071     -32.239
  H       -4.180    -129.264     -36.410
  H       -0.834    -127.225     -34.890
  H       -1.400    -128.145     -32.660
  H       -4.436    -129.903     -31.899
  H       -1.677    -131.230     -32.252
  H       -2.100    -132.187     -30.064
  H       -3.122    -129.769     -29.047
  H       -0.896    -128.796     -29.098
  H       -0.742    -130.509     -28.693
  P       -4.517    -133.284     -29.833
  C       -4.059    -133.501     -27.272
  O       -3.660    -133.808     -28.589
  O       -3.793    -133.937     -31.108
  O       -5.987    -133.540     -29.790
  H       -2.901    -133.580     -31.260
  H       -5.146    -133.461     -27.178
  H       -3.635    -132.538     -26.983
  H       -3.672    -134.270     -26.596
  H        3.129    -132.032     -29.121
  H        3.206    -131.481     -30.778
  H        1.722    -132.157     -30.150

 3  4  5  6  7  8  9  10  11  12  13  23  28  29  30  31  32 0
 6-311+G(2d,p)
 ****
 33  34 0
 6-311+G(2d,p)
 ****
 1  2  14  15  16  17  18  19  20  21  22  24  25  26 0
 3-21G
 ****
 27  35  36  37  38  39  40  41  42  43  44  45 0
 3-21G
 ****


