%nproc=1
%NoSave
%Mem=1900MB
#P OB98/GEN NMR

erre ene a

0 1
  C       97.312    -728.900     -39.034
  O       97.609    -730.017     -39.843
  H       96.248    -728.666     -39.150
  H       97.900    -728.038     -39.364
  H       97.516    -729.105     -37.979
  P       98.953    -730.842     -39.550
  C       97.579    -732.983     -39.110
  O       98.567    -732.091     -38.616
  C       98.143    -734.392     -39.337
  O       98.692    -734.916     -38.104
  C       97.074    -735.389     -39.784
  O       96.788    -735.397     -41.163
  C       97.676    -736.715     -39.337
  O       98.577    -737.235     -40.339
  C       98.450    -736.328     -38.071
  N       97.690    -739.815     -34.390
  C       98.479    -739.895     -35.524
  N       99.095    -741.088     -35.731
  N       98.626    -738.916     -36.378
  C       97.877    -737.828     -36.101
  C       97.046    -737.627     -35.004
  C       96.930    -738.699     -34.041
  O       96.247    -738.675     -33.019
  N       96.450    -736.384     -35.051
  C       96.861    -735.873     -36.197
  N       97.754    -736.693     -36.850
  O       99.768    -729.893     -38.545
  O       99.779    -731.176     -40.754
  H       98.997    -738.037     -39.984
  H      100.722    -730.069     -38.624
  H       97.642    -740.579     -33.750
  H       96.557    -734.902     -36.584
  H       99.428    -736.824     -38.036
  H       96.908    -737.481     -39.174
  H       98.915    -741.900     -35.174
  H       96.145    -735.220     -39.216
  H       99.462    -741.277     -36.674
  H       98.971    -734.331     -40.054
  H       97.231    -732.566     -40.055
  H       96.721    -733.021     -38.434
  P       95.331    -735.816     -41.684
  C       94.510    -733.369     -41.292
  O       94.298    -734.753     -41.076
  O       95.037    -737.149     -40.865
  O       95.222    -736.038     -43.159
  H       95.256    -737.942     -41.398
  H       93.730    -732.811     -40.819
  H       94.506    -733.167     -42.343
  H       95.454    -733.084     -40.878

 6  7  8  9  10  11  12  13  14  15  26  29  33  34 0
 6-311+G(2d,p)
 ****
 36  38  39  40  41 0
 6-311+G(2d,p)
 ****
 1  2  3  4  5  16  17  18  19  20  21  22  23  24  25 0
 3-21G
 ****
 27  28  30  31  32  35  37  42  43  44  45  46  47 0
 3-21G
 ****
 48  49 0
 3-21G
 ****


