%nproc=1
%NoSave
%Mem=1900MB
#P OB98/GEN NMR

erre ene a

0 1
  C     -189.960     310.425     -77.702
  O     -189.139     311.569     -77.839
  H     -190.491     310.490     -76.749
  H     -189.354     309.515     -77.704
  H     -190.696     310.385     -78.510
  P     -188.218     311.695     -79.142
  C     -190.352     312.471     -80.372
  O     -189.212     311.623     -80.399
  C     -190.719     312.910     -81.786
  O     -192.043     313.475     -81.811
  C     -189.789     313.971     -82.376
  O     -188.611     313.371     -82.890
  C     -190.677     314.542     -83.467
  O     -190.708     313.639     -84.590
  C     -192.053     314.565     -82.775
  N     -194.955     318.727     -82.764
  C     -194.822     317.742     -83.724
  N     -195.544     317.905     -84.853
  N     -194.046     316.699     -83.593
  C     -193.333     316.702     -82.444
  C     -193.363     317.630     -81.427
  C     -194.278     318.745     -81.555
  O     -194.443     319.627     -80.716
  N     -192.430     317.347     -80.461
  C     -191.874     316.224     -80.869
  N     -192.380     315.794     -82.074
  O     -187.062     310.745     -79.226
  O     -187.742     313.222     -79.141
  H     -191.102     312.804     -84.275
  H     -186.890     313.326     -78.679
  H     -195.563     319.512     -82.924
  H     -191.106     315.678     -80.333
  H     -192.870     314.375     -83.479
  H     -190.325     315.506     -83.838
  H     -196.041     318.755     -85.075
  H     -189.567     314.758     -81.649
  H     -195.415     317.224     -85.592
  H     -190.742     312.014     -82.420
  H     -190.102     313.339     -79.755
  H     -191.203     311.954     -79.917
  P     -187.540     314.218     -83.737
  C     -186.670     314.876     -81.392
  O     -186.951     315.302     -82.712
  O     -188.058     314.783     -85.014
  O     -186.303     313.224     -83.914
  H     -186.403     312.617     -84.689
  H     -186.286     315.699     -80.826
  H     -185.944     314.091     -81.418
  H     -187.568     314.516     -80.934

 6  7  8  9  10  11  12  13  14  15  26  29  33  34 0
 6-311+G(2d,p)
 ****
 36  38  39  40  41 0
 6-311+G(2d,p)
 ****
 1  2  3  4  5  16  17  18  19  20  21  22  23  24  25 0
 3-21G
 ****
 27  28  30  31  32  35  37  42  43  44  45  46  47 0
 3-21G
 ****
 48  49 0
 3-21G
 ****


