%nproc=1
%NoSave
%Mem=1900MB
#P OB98/GEN NMR

erre ene a

0 1
  C      415.487      18.996      96.985
  O      414.452      18.570      97.848
  H      415.686      20.053      97.170
  H      415.164      18.874      95.947
  H      416.403      18.427      97.160
  P      414.261      16.988      98.045
  C      415.318      15.206      99.619
  O      415.068      16.588      99.377
  C      415.870      15.008     101.031
  O      417.067      15.832     101.185
  C      414.890      15.387     102.153
  O      415.053      14.477     103.245
  C      415.397      16.753     102.589
  O      415.008      17.078     103.926
  C      416.900      16.566     102.415
  N      419.371      19.847     105.311
  C      418.950      18.551     105.569
  N      419.169      18.075     106.819
  N      418.366      17.790     104.685
  C      418.229      18.383     103.473
  C      418.593      19.651     103.092
  C      419.227      20.496     104.084
  O      419.602      21.650     103.922
  N      418.223      19.903     101.789
  C      417.618      18.790     101.393
  N      417.593      17.844     102.384
  O      415.156      16.378      96.862
  O      412.852      16.500      97.982
  H      415.524      16.513     104.533
  H      414.595      16.201      96.083
  H      419.803      20.397     106.035
  H      417.169      18.627     100.423
  H      417.348      15.976     103.227
  H      415.017      17.531     101.916
  H      419.645      18.591     107.544
  H      413.837      15.412     101.836
  H      418.908      17.115     107.012
  H      416.184      13.961     101.132
  H      416.049      14.839      98.890
  H      414.382      14.648      99.486
  P      414.070      13.210     103.328
  C      413.995      12.318     100.884
  O      414.496      12.154     102.203
  O      412.685      13.798     102.778
  O      413.921      12.657     104.708
  H      411.938      13.372     103.242
  H      414.372      11.535     100.259
  H      414.310      13.265     100.498
  H      412.926      12.277     100.901

 6  7  8  9  10  11  12  13  14  15  26  29  33  34 0
 6-311+G(2d,p)
 ****
 36  38  39  40  41 0
 6-311+G(2d,p)
 ****
 1  2  3  4  5  16  17  18  19  20  21  22  23  24  25 0
 3-21G
 ****
 27  28  30  31  32  35  37  42  43  44  45  46  47 0
 3-21G
 ****
 48  49 0
 3-21G
 ****


