%nproc=1
%NoSave
%Mem=1900MB
#P OB98/GEN NMR

erre ene a

0 1
  C      -86.164    -133.656      23.647
  O      -85.586    -133.027      24.779
  P      -84.219    -133.638      25.356
  C      -82.100    -132.645      26.492
  O      -83.327    -132.388      25.822
  C      -81.439    -131.333      26.902
  O      -81.140    -130.528      25.744
  C      -82.304    -130.449      27.792
  O      -82.269    -130.851      29.150
  C      -81.622    -129.103      27.617
  O      -80.452    -129.032      28.454
  C      -81.219    -129.135      26.138
  N      -82.081    -124.898      23.512
  C      -80.918    -125.347      24.109
  N      -79.854    -124.519      24.047
  N      -80.809    -126.502      24.710
  C      -81.960    -127.219      24.702
  C      -83.171    -126.883      24.141
  C      -83.280    -125.596      23.490
  O      -84.294    -125.121      22.990
  N      -84.100    -127.871      24.329
  C      -83.456    -128.807      24.998
  N      -82.167    -128.439      25.286
  O      -83.465    -134.158      24.044
  O      -84.398    -134.718      26.368
  H      -80.771    -128.991      29.377
  H      -82.757    -134.784      24.292
  H      -82.116    -123.997      23.066
  H      -83.884    -129.751      25.308
  H      -80.230    -128.693      25.973
  H      -82.263    -128.262      27.896
  H      -79.891    -123.590      23.653
  H      -83.332    -130.387      27.412
  H      -79.007    -124.793      24.529
  H      -80.492    -131.572      27.402
  H      -81.435    -133.199      25.826
  H      -82.294    -133.263      27.375
  P      -83.366    -130.200      30.125
  C      -84.758    -131.105      32.123
  O      -83.850    -131.393      31.079
  O      -84.612    -129.954      29.152
  O      -82.923    -128.949      30.806
  H      -85.164    -129.222      29.484
  H      -85.178    -132.046      32.490
  H      -85.575    -130.472      31.770
  H      -84.234    -130.610      32.944
  H      -87.064    -133.145      23.376
  H      -86.389    -134.675      23.882
  H      -85.475    -133.622      22.829

 3  4  5  6  7  8  9  10  11  12  23  26  30  31 0
 6-311+G(2d,p)
 ****
 33  35  36  37  38 0
 6-311+G(2d,p)
 ****
 1  2  13  14  15  16  17  18  19  20  21  22  24  25 0
 3-21G
 ****
 27  28  29  32  34  39  40  41  42  43  44  45  46  47  48  49 0
 3-21G
 ****


