%nproc=1
%NoSave
%Mem=1900MB
#P OB98/GEN NMR

erre ene a

0 1
  C     -421.227     234.895    -441.736
  O     -421.446     234.928    -443.128
  H     -420.203     234.564    -441.544
  H     -421.914     234.181    -441.266
  H     -421.365     235.885    -441.296
  P     -422.840     235.537    -443.644
  C     -421.811     237.634    -444.784
  O     -422.504     236.406    -444.956
  C     -422.403     238.713    -445.698
  O     -421.906     238.504    -447.051
  C     -423.933     238.698    -445.745
  O     -424.402     240.051    -445.808
  C     -424.247     237.999    -447.058
  O     -425.522     238.363    -447.587
  C     -423.048     238.426    -447.926
  N     -422.825     237.483    -449.024
  C     -422.522     238.028    -450.274
  O     -422.455     239.255    -450.411
  N     -422.345     237.195    -451.344
  C     -422.552     235.914    -451.200
  N     -422.395     235.138    -452.306
  C     -422.939     235.298    -449.916
  C     -423.053     236.132    -448.874
  O     -423.191     236.648    -442.547
  O     -423.941     234.549    -443.822
  H     -425.623     237.948    -448.464
  H     -424.154     236.746    -442.433
  H     -423.128     234.239    -449.851
  H     -423.347     235.773    -447.896
  H     -423.215     239.424    -448.356
  H     -424.236     236.914    -446.905
  H     -424.392     238.191    -444.894
  H     -422.028     239.692    -445.370
  H     -422.141     235.600    -453.168
  H     -420.755     237.487    -445.051
  H     -422.573     234.149    -452.324
  H     -421.870     237.945    -443.737
  P     -424.492     240.848    -444.412
  C     -423.907     243.047    -445.658
  O     -424.761     242.389    -444.734
  O     -422.981     240.825    -443.878
  O     -425.437     240.224    -443.437
  H     -422.902     240.215    -443.111
  H     -424.215     244.066    -445.765
  H     -423.962     242.556    -446.607
  H     -422.900     243.015    -445.298

 6  7  8  9  10  11  12  13  14  15  16  26  30  31  32  33  35 0
 6-311+G(2d,p)
 ****
 37  38 0
 6-311+G(2d,p)
 ****
 1  2  3  4  5  17  18  19  20  21  22  23  24  25 0
 3-21G
 ****
 27  28  29  34  36  39  40  41  42  43  44  45  46 0
 3-21G
 ****


