%nproc=1
%NoSave
%Mem=1900MB
#P OB98/GEN NMR

erre ene a

0 1
  C      195.573     -90.846      65.799
  O      194.620     -90.779      64.757
  H      195.647     -91.882      66.140
  H      195.258     -90.220      66.639
  H      196.553     -90.521      65.440
  P      194.375     -89.337      64.099
  C      192.365     -88.918      65.696
  O      193.618     -88.457      65.206
  C      191.974     -88.122      66.936
  O      192.935     -88.361      67.993
  C      191.969     -86.614      66.726
  O      190.806     -86.165      66.056
  C      192.072     -86.118      68.160
  O      190.790     -86.091      68.799
  C      192.972     -87.172      68.815
  N      197.111     -87.325      71.799
  C      195.923     -87.961      71.873
  N      194.873     -87.875      71.028
  C      195.155     -87.049      70.007
  C      196.321     -86.335      69.795
  C      197.338     -86.498      70.751
  N      198.540     -85.833      70.690
  N      196.220     -85.563      68.656
  C      195.018     -85.812      68.181
  N      194.338     -86.708      68.960
  O      193.244     -89.627      63.004
  O      195.583     -88.703      63.496
  H      190.293     -85.358      68.386
  H      193.656     -89.703      62.123
  H      195.792     -88.617      72.728
  H      194.594     -85.369      67.288
  H      192.619     -87.457      69.815
  H      192.480     -85.108      68.193
  H      192.870     -86.306      66.182
  H      190.993     -88.472      67.283
  H      192.446     -89.978      65.957
  H      191.612     -88.801      64.910
  H      199.196     -85.944      71.446
  H      198.674     -85.128      69.976
  P      190.885     -84.762      65.285
  C      189.966     -83.452      67.346
  O      191.013     -83.615      66.398
  O      189.408     -84.561      64.703
  O      191.919     -84.700      64.212
  H      189.451     -84.117      63.834
  H      190.209     -82.650      68.011
  H      189.848     -84.356      67.906
  H      189.053     -83.228      66.834

 6  7  8  9  10  11  12  13  14  15  25  28  32  33  34  35 0
 6-311+G(2d,p)
 ****
 36  37  40 0
 6-311+G(2d,p)
 ****
 1  2  3  4  5  16  17  18  19  20  21  22  23  24 0
 3-21G
 ****
 26  27  29  30  31  38  39 41  42  43  44  45  46  47  48 0
 3-21G
 ****


