%nproc=1
%NoSave
%Mem=1900MB
#P OB98/GEN NMR

erre ene a

0 1
  C      924.813     232.945    -812.156
  O      925.174     231.561    -812.235
  P      925.634     231.001    -813.667
  C      924.467     230.717    -815.993
  O      924.342     231.096    -814.623
  C      923.322     231.302    -816.815
  O      923.277     232.736    -816.648
  C      923.446     231.071    -818.326
  O      923.010     229.776    -818.710
  C      922.528     232.122    -818.849
  O      921.156     231.698    -818.740
  C      922.786     233.288    -817.900
  N      923.477     237.286    -821.013
  C      922.398     236.522    -820.786
  N      922.300     235.470    -819.933
  C      923.473     235.220    -819.340
  C      924.658     235.912    -819.512
  C      924.647     237.004    -820.391
  N      925.739     237.813    -820.626
  N      925.681     235.358    -818.739
  C      925.070     234.364    -818.072
  N      923.773     234.252    -818.421
  O      925.788     229.425    -813.412
  O      926.889     231.621    -814.216
  H      920.594     232.455    -818.991
  H      926.393     229.041    -814.074
  H      921.495     236.789    -821.314
  H      925.588     233.711    -817.378
  H      921.876     233.855    -817.658
  H      922.714     232.364    -819.907
  H      924.477     231.262    -818.663
  H      922.369     230.873    -816.448
  H      924.424     229.618    -816.035
  H      925.592     238.680    -821.098
  H      926.541     237.725    -819.988
  H      925.439     231.059    -816.362
  P      923.604     229.165    -820.060
  C      923.895     230.293    -822.396
  O      923.078     230.126    -821.221
  O      922.759     227.813    -820.275
  O      925.076     228.920    -820.004
  H      923.283     227.180    -820.791
  H      923.265     230.730    -823.192
  H      924.297     229.346    -822.715
  H      924.707     230.988    -822.179
  H      924.529     233.183    -811.152
  H      923.992     233.137    -812.814
  H      925.649     233.549    -812.443

 3  4  5  6  7  8  9  10  11  12  22  25  29  30  31  32 0
 6-311+G(2d,p)
 ****
 33  36  37 0
 6-311+G(2d,p)
 ****
 1  2  13  14  15  16  17  18  19  20  21  23  24  26 0
 3-21G
 ****
 27  28  34  35  38  39  40  41  42  43  44  45  46  47  48 0
 3-21G
 ****


