%nproc=1
%NoSave
%Mem=1900MB
#P OB98/GEN NMR

erre ene a

0 1
  C       84.391    -302.657    -118.620
  O       84.019    -303.458    -117.513
  H       84.248    -301.608    -118.357
  H       83.758    -302.895    -119.478
  H       85.441    -302.821    -118.874
  P       84.239    -305.041    -117.658
  C       86.465    -306.161    -118.377
  O       85.814    -305.299    -117.454
  C       87.880    -306.491    -117.902
  O       88.608    -305.246    -117.689
  C       87.933    -307.287    -116.586
  O       89.050    -308.183    -116.654
  C       88.252    -306.213    -115.554
  O       88.827    -306.750    -114.365
  C       89.192    -305.324    -116.370
  N       92.069    -302.619    -113.250
  C       92.203    -303.923    -113.692
  N       93.268    -304.616    -113.230
  N       91.364    -304.499    -114.514
  C       90.365    -303.679    -114.919
  C       90.119    -302.375    -114.552
  C       91.039    -301.760    -113.619
  O       90.963    -300.615    -113.175
  N       88.983    -301.897    -115.161
  C       88.548    -302.909    -115.894
  N       89.351    -304.012    -115.781
  O       84.013    -305.285    -119.223
  O       83.340    -305.890    -116.822
  H       89.600    -307.291    -114.624
  H       83.085    -305.534    -119.396
  H       92.737    -302.231    -112.606
  H       87.660    -302.898    -116.515
  H       90.196    -305.756    -116.464
  H       87.339    -305.670    -115.279
  H       93.979    -304.224    -112.636
  H       87.021    -307.847    -116.357
  H       93.407    -305.559    -113.580
  H       88.401    -307.026    -118.702
  H       86.522    -305.661    -119.352
  H       85.883    -307.081    -118.482
  P       88.786    -309.678    -117.168
  C       88.537    -310.485    -119.629
  O       89.328    -309.792    -118.674
  O       87.193    -309.710    -117.360
  O       89.251    -310.742    -116.226
  H       86.865    -310.621    -117.242
  H       89.032    -310.473    -120.578
  H       87.584    -310.007    -119.717
  H       88.400    -311.497    -119.311

 6  7  8  9  10  11  12  13  14  15  26  29  33  34 0
 6-311+G(2d,p)
 ****
 36  38  39  40  41 0
 6-311+G(2d,p)
 ****
 1  2  3  4  5  16  17  18  19  20  21  22  23  24  25 0
 3-21G
 ****
 27  28  30  31  32  35  37  42  43  44  45  46  47 0
 3-21G
 ****
 48  49 0
 3-21G
 ****


