%nproc=1
%NoSave
%Mem=1900MB
#P OB98/GEN NMR

erre ene a

0 1
  C       51.853    -189.646     205.439
  O       52.667    -190.770     205.191
  P       53.399    -190.973     203.782
  C       55.649    -191.952     204.569
  O       54.395    -192.224     203.953
  C       56.460    -193.245     204.715
  O       55.841    -194.070     205.752
  C       56.505    -194.073     203.415
  O       57.819    -194.435     202.992
  C       55.575    -195.235     203.725
  O       55.785    -196.373     202.911
  C       55.793    -195.413     205.233
  N       54.744    -196.215     205.858
  C       55.103    -197.479     206.320
  O       56.233    -197.951     206.244
  N       54.088    -198.238     206.833
  C       52.764    -197.917     206.824
  O       51.897    -198.687     207.211
  C       52.441    -196.586     206.289
  C       53.429    -195.797     205.858
  O       54.041    -189.753     203.213
  O       52.244    -191.592     202.859
  H       55.484    -196.155     202.009
  H       51.874    -192.433     203.178
  H       54.334    -199.155     207.171
  H       51.398    -196.308     206.260
  H       53.222    -194.810     205.458
  H       56.755    -195.879     205.444
  H       54.547    -194.899     203.544
  H       56.103    -193.501     202.571
  H       57.466    -192.972     205.044
  H       55.469    -191.528     205.560
  H       56.195    -191.204     203.985
  P       58.384    -194.269     201.504
  C       60.935    -194.547     201.931
  O       59.750    -195.096     201.393
  O       58.454    -192.864     201.003
  O       57.365    -195.132     200.619
  H       57.316    -194.758     199.720
  H       61.787    -194.932     201.365
  H       61.035    -194.861     202.973
  H       60.934    -193.455     201.875
  H       51.462    -189.702     206.433
  H       51.045    -189.629     204.738
  H       52.435    -188.754     205.334

 3  4  5  6  7  8  9  10  11  12  13  23  28  29  30  31  32 0
 6-311+G(2d,p)
 ****
 33  34 0
 6-311+G(2d,p)
 ****
 1  2  14  15  16  17  18  19  20  21  22  24  25  26  27 0
 3-21G
 ****
 35  36  37  38  39  40  41  42  43  44  45 0
 3-21G
 ****


