%nproc=1
%NoSave
%Mem=1900MB
#P OB98/GEN NMR

erre ene a

0 1
  C     -117.100     259.731     -15.597
  O     -117.695     258.846     -16.525
  H     -117.851     260.458     -15.271
  H     -116.273     260.270     -16.068
  H     -116.736     259.182     -14.724
  P     -116.765     257.668     -17.097
  C     -117.630     256.057     -15.246
  O     -116.504     256.665     -15.873
  C     -117.614     254.553     -15.508
  O     -116.384     253.987     -14.994
  C     -118.736     253.785     -14.819
  O     -119.964     253.894     -15.520
  C     -118.167     252.372     -14.808
  O     -118.397     251.700     -16.052
  C     -116.665     252.619     -14.615
  N     -114.734     249.144     -11.421
  C     -114.987     249.109     -12.750
  N     -115.486     250.091     -13.533
  C     -115.719     251.199     -12.810
  C     -115.521     251.379     -11.450
  C     -114.996     250.284     -10.740
  N     -114.774     250.305      -9.384
  N     -115.923     252.643     -11.064
  C     -116.352     253.221     -12.169
  N     -116.243     252.387     -13.248
  O     -115.353     258.398     -17.300
  O     -117.252     257.029     -18.356
  H     -118.085     252.301     -16.755
  H     -115.273     258.704     -18.223
  H     -114.760     248.172     -13.248
  H     -116.752     254.224     -12.239
  H     -116.053     251.976     -15.259
  H     -118.623     251.765     -14.022
  H     -118.852     254.130     -13.782
  H     -117.637     254.385     -16.593
  H     -118.549     256.487     -15.661
  H     -117.588     256.263     -14.173
  H     -114.416     249.476      -8.937
  H     -115.066     251.117      -8.848
  P     -121.329     253.845     -14.685
  C     -122.121     256.304     -14.990
  O     -121.601     255.318     -14.110
  O     -120.934     252.993     -13.388
  O     -122.484     253.242     -15.419
  H     -121.236     252.073     -13.480
  H     -122.246     257.225     -14.460
  H     -123.068     255.980     -15.369
  H     -121.442     256.450     -15.804

 6  7  8  9  10  11  12  13  14  15  25  28  32  33  34  35 0
 6-311+G(2d,p)
 ****
 36  37  40 0
 6-311+G(2d,p)
 ****
 1  2  3  4  5  16  17  18  19  20  21  22  23  24 0
 3-21G
 ****
 26  27  29  30  31  38  39 41  42  43  44  45  46  47  48 0
 3-21G
 ****


