%nproc=1
%NoSave
%Mem=1900MB
#P OB98/GEN NMR

erre ene a

0 1
  C      -81.594     181.530     -60.413
  O      -82.544     180.691     -61.041
  P      -82.308     180.158     -62.529
  C      -81.743     177.692     -62.131
  O      -81.222     178.975     -62.454
  C      -81.342     176.652     -63.174
  O      -81.911     177.024     -64.459
  C      -79.827     176.495     -63.374
  O      -79.593     175.116     -63.684
  C      -79.562     177.342     -64.607
  O      -78.350     176.997     -65.268
  C      -80.827     177.055     -65.410
  N      -79.428     178.867     -69.981
  C      -78.928     177.872     -69.218
  N      -79.341     177.467     -67.998
  C      -80.382     178.202     -67.582
  C      -80.981     179.270     -68.233
  C      -80.470     179.590     -69.504
  N      -80.989     180.581     -70.312
  N      -81.985     179.811     -67.455
  C      -81.993     179.081     -66.357
  N      -81.084     178.062     -66.417
  O      -82.009     181.211     -63.543
  O      -83.662     179.383     -62.883
  H      -77.604     177.293     -64.715
  H      -84.193     179.913     -63.509
  H      -78.092     177.324     -69.642
  H      -82.625     179.251     -65.497
  H      -80.788     176.082     -65.912
  H      -79.503     178.399     -64.321
  H      -79.231     176.805     -62.514
  H      -81.791     175.690     -62.891
  H      -82.835     177.768     -62.097
  H      -80.634     180.636     -71.253
  H      -81.916     180.948     -70.104
  H      -81.388     177.387     -61.139
  P      -78.428     174.313     -62.926
  C      -79.927     172.758     -61.557
  O      -79.033     173.855     -61.518
  O      -77.112     175.013     -62.860
  O      -78.327     172.939     -63.746
  H      -77.478     172.506     -63.549
  H      -80.918     173.106     -61.861
  H      -79.994     172.317     -60.558
  H      -79.584     171.992     -62.262
  H      -81.932     181.777     -59.428
  H      -81.477     182.427     -60.985
  H      -80.655     181.021     -60.351

 3  4  5  6  7  8  9  10  11  12  22  25  29  30  31  32 0
 6-311+G(2d,p)
 ****
 33  36  37 0
 6-311+G(2d,p)
 ****
 1  2  13  14  15  16  17  18  19  20  21  23  24  26 0
 3-21G
 ****
 27  28  34  35  38  39  40  41  42  43  44  45  46  47  48 0
 3-21G
 ****


