%nproc=1
%NoSave
%Mem=1900MB
#P OB98/GEN NMR

erre ene a

0 1
  C      605.298     209.587      86.818
  O      604.987     208.808      85.685
  H      604.653     210.471      86.825
  H      606.339     209.917      86.785
  H      605.115     209.021      87.735
  P      605.828     207.467      85.420
  C      608.147     208.604      85.470
  O      607.177     207.925      84.680
  C      609.556     208.243      84.997
  O      610.544     208.878      85.833
  C      609.867     206.750      85.017
  O      609.338     206.107      83.868
  C      611.383     206.787      85.022
  O      611.869     207.076      83.699
  C      611.668     207.970      85.963
  N      614.958     206.945      89.696
  C      615.186     207.127      88.346
  N      616.462     206.994      87.924
  N      614.238     207.411      87.486
  C      613.008     207.450      88.037
  C      612.655     207.264      89.355
  C      613.721     207.021      90.307
  O      613.569     206.875      91.523
  N      611.297     207.289      89.522
  C      610.822     207.540      88.313
  N      611.820     207.635      87.370
  O      605.097     206.363      84.722
  O      606.338     207.032      86.873
  H      611.545     206.368      83.114
  H      605.709     206.412      87.294
  H      615.732     206.722      90.309
  H      609.778     207.656      88.071
  H      612.576     208.518      85.672
  H      611.828     205.832      85.329
  H      617.198     206.631      88.504
  H      609.511     206.285      85.944
  H      616.631     207.072      86.924
  H      609.686     208.656      83.981
  H      608.004     208.295      86.506
  H      608.003     209.690      85.399
  P      608.187     204.990      83.977
  C      610.169     203.540      84.806
  O      608.970     203.582      84.059
  O      607.140     205.061      82.936
  O      607.641     205.140      85.478
  H      606.943     205.840      85.558
  H      610.576     202.551      84.773
  H      609.966     203.808      85.822
  H      610.873     204.229      84.389

 6  7  8  9  10  11  12  13  14  15  26  29  33  34 0
 6-311+G(2d,p)
 ****
 36  38  39  40  41 0
 6-311+G(2d,p)
 ****
 1  2  3  4  5  16  17  18  19  20  21  22  23  24  25 0
 3-21G
 ****
 27  28  30  31  32  35  37  42  43  44  45  46  47 0
 3-21G
 ****
 48  49 0
 3-21G
 ****


