%nproc=1
%NoSave
%Mem=1900MB
#P OB98/GEN NMR

erre ene a

0 1
  C     -511.684    -612.717    -128.688
  O     -510.710    -613.515    -129.336
  H     -511.183    -611.960    -128.085
  H     -512.299    -613.346    -128.023
  H     -512.316    -612.225    -129.428
  P     -511.253    -614.733    -130.227
  C     -511.187    -613.183    -132.309
  O     -511.960    -614.070    -131.510
  C     -511.263    -613.587    -133.776
  O     -512.625    -613.620    -134.248
  C     -510.490    -612.673    -134.716
  O     -509.109    -613.009    -134.755
  C     -511.194    -612.937    -136.045
  O     -510.732    -614.163    -136.641
  C     -512.655    -613.090    -135.598
  N     -515.387    -609.997    -138.531
  C     -514.672    -611.131    -138.857
  N     -514.653    -611.497    -140.166
  N     -514.016    -611.851    -137.978
  C     -514.071    -611.348    -136.724
  C     -514.735    -610.225    -136.272
  C     -515.502    -609.466    -137.248
  O     -516.221    -608.499    -137.014
  N     -514.567    -610.049    -134.911
  C     -513.761    -611.045    -134.565
  N     -513.434    -611.848    -135.621
  O     -512.493    -615.292    -129.374
  O     -510.263    -615.815    -130.516
  H     -509.753    -614.152    -136.679
  H     -512.511    -616.262    -129.446
  H     -515.890    -609.502    -139.246
  H     -513.415    -611.214    -133.550
  H     -513.211    -613.808    -136.215
  H     -511.011    -612.146    -136.773
  H     -514.886    -610.832    -140.894
  H     -510.627    -611.612    -134.444
  H     -514.078    -612.288    -140.403
  H     -510.871    -614.621    -133.853
  H     -510.146    -613.211    -131.964
  H     -511.578    -612.167    -132.193
  P     -508.056    -611.857    -135.114
  C     -508.400    -610.787    -132.767
  O     -508.369    -610.589    -134.180
  O     -508.521    -611.379    -136.566
  O     -506.628    -612.311    -135.125
  H     -507.896    -611.728    -137.248
  H     -508.619    -609.859    -132.282
  H     -507.448    -611.147    -132.436
  H     -509.156    -611.504    -132.524

 6  7  8  9  10  11  12  13  14  15  26  29  33  34 0
 6-311+G(2d,p)
 ****
 36  38  39  40  41 0
 6-311+G(2d,p)
 ****
 1  2  3  4  5  16  17  18  19  20  21  22  23  24  25 0
 3-21G
 ****
 27  28  30  31  32  35  37  42  43  44  45  46  47 0
 3-21G
 ****
 48  49 0
 3-21G
 ****


