%nproc=1
%NoSave
%Mem=1900MB
#P OB98/GEN NMR

erre ene a

0 1
  C     -977.266    -633.829    -897.780
  O     -978.163    -634.897    -898.120
  P     -977.498    -636.284    -898.560
  C     -978.348    -637.706    -896.570
  O     -977.222    -637.180    -897.250
  C     -978.025    -638.002    -895.090
  O     -977.034    -639.081    -894.990
  C     -977.459    -636.799    -894.340
  O     -977.908    -636.858    -892.990
  C     -975.951    -637.052    -894.380
  O     -975.274    -636.299    -893.360
  C     -975.942    -638.584    -894.200
  N     -970.993    -639.148    -893.020
  C     -972.024    -638.512    -892.410
  N     -973.305    -638.385    -892.800
  C     -973.517    -639.027    -893.960
  C     -972.588    -639.727    -894.710
  C     -971.264    -639.751    -894.220
  N     -970.227    -640.367    -894.870
  N     -973.150    -640.216    -895.860
  C     -974.407    -639.843    -895.780
  N     -974.704    -639.164    -894.640
  O     -976.007    -635.853    -899.030
  O     -978.231    -636.987    -899.660
  H     -974.310    -636.467    -893.470
  H     -975.953    -635.907    -900.000
  H     -971.756    -638.039    -891.460
  H     -975.190    -640.033    -896.550
  H     -976.100    -638.873    -893.150
  H     -975.549    -636.764    -895.350
  H     -977.719    -635.815    -894.780
  H     -978.954    -638.335    -894.600
  H     -978.664    -638.636    -897.060
  H     -969.306    -640.323    -894.460
  H     -970.403    -640.791    -895.790
  H     -979.191    -637.033    -896.670
  P     -979.065    -635.822    -892.540
  C     -980.998    -637.549    -892.640
  O     -980.435    -636.403    -893.190
  O     -978.756    -634.541    -893.440
  O     -979.098    -635.523    -891.100
  H     -979.088    -633.730    -892.980
  H     -982.089    -637.450    -892.580
  H     -980.621    -637.777    -891.620
  H     -980.778    -638.410    -893.290
  H     -977.831    -632.963    -897.505
  H     -976.649    -633.600    -898.623
  H     -976.650    -634.129    -896.958

 3  4  5  6  7  8  9  10  11  12  22  25  29  30  31  32 0
 6-311+G(2d,p)
 ****
 33  36  37 0
 6-311+G(2d,p)
 ****
 1  2  13  14  15  16  17  18  19  20  21  23  24  26 0
 3-21G
 ****
 27  28  34  35  38  39  40  41  42  43  44  45  46  47  48 0
 3-21G
 ****


