%nproc=1
%NoSave
%Mem=1900MB
#P OB98/GEN NMR

erre ene a

0 1
  C      645.139     433.206     365.690
  O      646.429     433.311     366.256
  P      647.672     433.512     365.255
  C      648.834     431.931     363.503
  O      647.932     432.080     364.595
  C      648.459     430.712     362.668
  O      647.079     430.795     362.281
  C      649.247     430.566     361.363
  O      650.557     430.056     361.586
  C      648.326     429.634     360.572
  O      648.527     428.268     360.994
  C      646.933     430.125     361.006
  N      646.300     431.003     360.009
  C      645.562     430.371     359.018
  O      645.438     429.146     358.940
  N      644.990     431.194     358.086
  C      645.131     432.557     358.022
  O      644.629     433.236     357.128
  C      645.937     433.163     359.082
  C      646.479     432.366     360.011
  O      648.871     433.710     366.302
  O      647.471     434.643     364.300
  H      648.684     433.264     367.152
  H      647.960     427.721     360.391
  H      644.427     430.759     357.361
  H      646.091     434.229     359.060
  H      647.096     432.797     360.805
  H      646.273     429.264     361.184
  H      648.516     429.681     359.499
  H      649.300     431.533     360.855
  H      648.588     429.813     363.298
  H      649.860     431.800     363.909
  H      648.824     432.837     362.897
  P      651.594     430.191     360.356
  C      651.404     429.613     357.822
  O      650.939     429.400     359.131
  O      652.790     429.242     360.860
  O      652.005     431.605     360.074
  H      652.471     428.408     361.270
  H      651.117     428.758     357.198
  H      652.505     429.711     357.791
  H      650.961     430.520     357.414
  H      644.417     433.077     366.469
  H      645.106     432.364     365.030
  H      644.916     434.098     365.142

 3  4  5  6  7  8  9  10  11  12  13  24  28  29  30  31  32 0
 6-311+G(2d,p)
 ****
 33  34 0
 6-311+G(2d,p)
 ****
 1  2  14  15  16  17  18  19  20  21  22  23  25  26  27 0
 3-21G
 ****
 35  36  37  38  39  40  41  42  43  44  45 0
 3-21G
 ****


