%nproc=1
%NoSave
%Mem=1900MB
#P OB98/GEN NMR

erre ene a

0 1
  C        8.082     701.939     132.698
  O        7.997     703.110     131.909
  H        8.363     702.218     133.715
  H        8.851     701.274     132.291
  H        7.118     701.424     132.720
  P        7.436     702.946     130.420
  C        9.709     702.679     129.131
  O        8.507     702.079     129.601
  C        9.802     702.548     127.612
  O        9.855     701.164     127.216
  C        8.599     703.093     126.873
  O        8.532     704.509     126.894
  C        8.839     702.510     125.485
  O        9.825     703.269     124.770
  C        9.384     701.106     125.838
  N        8.387     700.057     125.652
  C        8.638     699.160     124.609
  O        9.646     699.281     123.910
  N        7.716     698.176     124.349
  C        6.656     698.076     125.093
  N        5.775     697.080     124.788
  C        6.367     698.983     126.223
  C        7.266     699.943     126.443
  O        7.626     704.411     129.811
  O        6.043     702.414     130.319
  H        9.513     704.192     124.767
  H        8.537     704.756     129.895
  H        5.476     698.858     126.823
  H        7.131     700.647     127.250
  H       10.256     700.864     125.217
  H        7.933     702.511     124.872
  H        7.676     702.653     127.267
  H       10.730     703.034     127.287
  H        5.993     696.495     123.990
  H       10.582     702.237     129.618
  H        4.905     696.930     125.272
  H        9.680     703.738     129.411
  P        7.142     705.256     127.158
  C        7.289     705.892     124.667
  O        6.447     705.426     125.718
  O        7.231     706.507     127.959
  O        6.225     704.109     127.831
  H        6.097     703.323     127.277
  H        6.722     705.966     123.762
  H        8.097     705.205     124.527
  H        7.679     706.855     124.923

 6  7  8  9  10  11  12  13  14  15  16  26  30  31  32  33  35 0
 6-311+G(2d,p)
 ****
 37  38 0
 6-311+G(2d,p)
 ****
 1  2  3  4  5  17  18  19  20  21  22  23  24  25 0
 3-21G
 ****
 27  28  29  34  36  39  40  41  42  43  44  45  46 0
 3-21G
 ****


