%nproc=1
%NoSave
%Mem=1900MB
#P OB98/GEN NMR

erre ene a

0 1
  C      332.162     515.875    -479.397
  O      331.661     516.957    -478.645
  H      333.195     516.094    -479.678
  H      331.575     515.752    -480.308
  H      332.148     514.949    -478.819
  P      330.276     516.783    -477.858
  C      331.728     517.072    -475.750
  O      330.648     516.378    -476.353
  C      331.986     516.563    -474.328
  O      330.859     516.943    -473.480
  C      332.134     515.046    -474.234
  O      333.019     514.763    -473.144
  C      330.727     514.605    -473.876
  O      330.692     513.300    -473.349
  C      330.316     515.732    -472.916
  N      328.870     515.810    -472.729
  C      328.424     516.126    -471.448
  O      329.194     516.301    -470.484
  N      327.071     516.192    -471.277
  C      326.128     515.917    -472.228
  O      324.929     515.965    -472.001
  C      326.659     515.553    -473.558
  C      327.981     515.517    -473.737
  O      329.267     515.890    -478.518
  O      329.721     518.272    -477.694
  H      330.979     513.303    -472.407
  H      328.747     518.274    -477.679
  H      326.735     516.424    -470.348
  H      325.940     515.315    -474.334
  H      328.400     515.254    -474.704
  H      330.775     515.582    -471.931
  H      330.086     514.610    -474.766
  H      332.498     514.581    -475.150
  H      332.870     517.077    -473.921
  H      331.463     518.141    -475.721
  H      332.636     516.948    -476.356
  P      334.519     514.209    -473.377
  C      335.495     516.583    -473.147
  O      335.425     515.398    -473.941
  O      334.576     512.948    -474.181
  O      335.103     513.979    -471.900
  H      335.766     513.262    -471.913
  H      336.128     517.298    -473.629
  H      335.896     516.344    -472.184
  H      334.514     516.994    -473.033

 6  7  8  9  10  11  12  13  14  15  16  26  31  32  33  34  35 0
 6-311+G(2d,p)
 ****
 36  37 0
 6-311+G(2d,p)
 ****
 1  2  3  4  5  17  18  19  20  21  22  23  24  25 0
 3-21G
 ****
 27  28  29  30  38  39  40  41  42  43  44  45 0
 3-21G
 ****


