%nproc=1
%NoSave
%Mem=1900MB
#P OB98/GEN NMR

erre ene a

0 1
  C     -195.802    -292.351    -136.035
  O     -196.555    -291.191    -136.363
  P     -196.920    -290.954    -137.911
  C     -199.497    -291.251    -138.039
  O     -198.217    -291.855    -138.191
  C     -200.534    -292.289    -137.617
  O     -200.233    -292.784    -136.298
  C     -201.959    -291.764    -137.545
  O     -202.586    -291.732    -138.818
  C     -202.609    -292.817    -136.661
  O     -202.912    -293.989    -137.440
  C     -201.491    -293.124    -135.657
  N     -202.982    -293.365    -130.772
  C     -203.052    -294.261    -131.778
  N     -202.644    -294.118    -133.057
  C     -202.150    -292.884    -133.263
  C     -202.051    -291.853    -132.342
  C     -202.484    -292.132    -131.036
  N     -202.387    -291.227    -130.004
  N     -201.496    -290.735    -132.923
  C     -201.254    -291.085    -134.169
  N     -201.623    -292.377    -134.421
  O     -195.755    -291.739    -138.678
  O     -197.006    -289.527    -138.326
  H     -203.684    -293.767    -137.995
  H     -195.648    -291.379    -139.581
  H     -203.484    -295.221    -131.523
  H     -200.808    -290.443    -134.918
  H     -201.444    -294.187    -135.396
  H     -203.548    -292.477    -136.216
  H     -202.000    -290.790    -137.043
  H     -200.468    -293.132    -138.317
  H     -199.800    -290.811    -138.993
  H     -202.543    -291.561    -129.067
  H     -201.834    -290.390    -130.157
  H     -199.429    -290.455    -137.291
  P     -203.500    -290.453    -139.143
  C     -202.095    -289.025    -140.799
  O     -202.469    -289.267    -139.457
  O     -204.109    -290.071    -137.713
  O     -204.556    -290.702    -140.167
  H     -204.956    -289.596    -137.821
  H     -201.658    -288.025    -140.865
  H     -202.960    -289.074    -141.464
  H     -201.346    -289.758    -141.114
  H     -195.634    -292.380    -134.979
  H     -194.862    -292.322    -136.545
  H     -196.343    -293.224    -136.334

 3  4  5  6  7  8  9  10  11  12  22  25  29  30  31  32 0
 6-311+G(2d,p)
 ****
 33  36  37 0
 6-311+G(2d,p)
 ****
 1  2  13  14  15  16  17  18  19  20  21  23  24  26 0
 3-21G
 ****
 27  28  34  35  38  39  40  41  42  43  44  45  46  47  48 0
 3-21G
 ****


