%nproc=1
%NoSave
%Mem=1900MB
#P OB98/GEN NMR

erre ene a

0 1
  C      332.836     712.280    -278.085
  O      332.174     712.385    -276.841
  H      333.906     712.447    -277.961
  H      332.680     711.272    -278.481
  H      332.421     713.005    -278.797
  P      332.305     713.792    -276.071
  C      333.056     712.468    -273.960
  O      332.169     713.429    -274.512
  C      332.932     712.482    -272.443
  O      333.457     713.716    -271.907
  C      331.496     712.386    -271.942
  O      331.017     711.052    -271.918
  C      331.651     712.944    -270.532
  O      332.231     711.951    -269.678
  C      332.636     714.105    -270.761
  N      333.389     718.991    -272.069
  C      334.247     717.951    -271.926
  N      333.963     716.677    -271.591
  C      332.641     716.514    -271.416
  C      331.650     717.475    -271.543
  C      332.069     718.781    -271.884
  N      331.202     719.845    -272.006
  N      330.409     716.934    -271.268
  C      330.651     715.661    -270.999
  N      331.990     715.373    -271.045
  O      330.921     714.531    -276.393
  O      333.501     714.612    -276.412
  H      333.131     711.768    -270.009
  H      330.979     715.477    -276.162
  H      335.295     718.182    -272.087
  H      329.901     714.925    -270.760
  H      333.312     714.261    -269.907
  H      330.694     713.232    -270.092
  H      330.829     713.040    -272.513
  H      333.550     711.666    -272.036
  H      334.086     712.727    -274.244
  H      331.619     720.757    -272.103
  H      330.242     719.722    -271.724
  H      332.815     711.478    -274.348
  P      330.083     710.575    -273.146
  C      328.050     709.887    -271.696
  O      329.093     709.459    -272.556
  O      331.103     709.733    -274.047
  O      329.445     711.692    -273.899
  H      330.874     709.805    -274.998
  H      327.476     709.040    -271.383
  H      327.417     710.574    -272.217
  H      328.470     710.369    -270.838

 6  7  8  9  10  11  12  13  14  15  25  28  32  33  34  35 0
 6-311+G(2d,p)
 ****
 36  39  40 0
 6-311+G(2d,p)
 ****
 1  2  3  4  5  16  17  18  19  20  21  22  23  24 0
 3-21G
 ****
 26  27  29  30  31  37  38  41  42  43  44  45  46  47 0
 3-21G
 ****
 48 0
 3-21G
 ****


