%nproc=1
%NoSave
%Mem=1900MB
#P OB98/GEN NMR

erre ene a

0 1
  C      152.198    -669.514    -426.958
  O      153.293    -669.705    -426.083
  H      152.562    -669.531    -427.990
  H      151.729    -668.540    -426.770
  H      151.463    -670.315    -426.832
  P      153.023    -669.712    -424.505
  C      152.604    -667.178    -424.185
  O      152.027    -668.468    -424.265
  C      152.307    -666.558    -422.812
  O      150.892    -666.551    -422.533
  C      152.931    -667.288    -421.626
  O      154.326    -667.100    -421.510
  C      152.157    -666.637    -420.489
  O      152.674    -665.327    -420.243
  C      150.741    -666.594    -421.089
  N      149.918    -667.746    -420.695
  C      149.198    -667.631    -419.505
  O      149.270    -666.599    -418.823
  N      148.426    -668.693    -419.081
  C      148.406    -669.779    -419.783
  N      147.630    -670.807    -419.310
  C      149.167    -669.962    -421.034
  C      149.893    -668.918    -421.443
  O      154.237    -669.738    -423.630
  O      152.045    -670.962    -424.263
  H      152.654    -664.847    -421.083
  H      151.857    -671.020    -423.303
  H      149.138    -670.907    -421.559
  H      150.474    -668.972    -422.340
  H      150.217    -665.673    -420.792
  H      152.237    -667.198    -419.551
  H      152.676    -668.356    -421.656
  H      152.634    -665.499    -422.849
  H      147.129    -670.656    -418.452
  H      152.190    -666.561    -424.990
  H      147.621    -671.726    -419.751
  H      153.691    -667.239    -424.304
  P      155.100    -668.045    -420.446
  C      155.319    -666.381    -418.439
  O      154.668    -667.525    -418.987
  O      156.630    -667.583    -420.598
  O      154.918    -669.524    -420.656
  H      157.118    -668.203    -421.174
  H      154.916    -666.171    -417.470
  H      155.161    -665.539    -419.081
  H      156.368    -666.574    -418.355

 6  7  8  9  10  11  12  13  14  15  16  26  30  31  32  33  35 0
 6-311+G(2d,p)
 ****
 37  38 0
 6-311+G(2d,p)
 ****
 1  2  3  4  5  17  18  19  20  21  22  23  24  25 0
 3-21G
 ****
 27  28  29  34  36  39  40  41  42  43  44  45  46 0
 3-21G
 ****


