%nproc=1
%NoSave
%Mem=1900MB
#P OB98/GEN NMR

erre ene a

0 1
  C     -330.188    -189.200    -326.910
  O     -329.386    -188.756    -325.832
  H     -331.237    -189.008    -326.669
  H     -330.050    -190.274    -327.054
  H     -329.930    -188.663    -327.827
  P     -327.803    -188.733    -326.083
  C     -327.954    -186.348    -327.162
  O     -327.526    -187.697    -327.283
  C     -327.434    -185.524    -328.338
  O     -328.063    -184.227    -328.375
  C     -325.950    -185.202    -328.263
  O     -325.137    -186.323    -328.528
  C     -325.845    -184.109    -329.322
  O     -325.699    -184.663    -330.636
  C     -327.208    -183.386    -329.180
  N     -327.052    -182.055    -328.624
  C     -327.125    -181.005    -329.549
  O     -327.338    -181.245    -330.739
  N     -326.930    -179.724    -329.104
  C     -326.653    -179.507    -327.856
  N     -326.436    -178.218    -327.486
  C     -326.559    -180.587    -326.850
  C     -326.768    -181.825    -327.294
  O     -327.540    -190.159    -326.763
  O     -326.980    -188.477    -324.867
  H     -325.616    -183.901    -331.248
  H     -328.151    -190.360    -327.495
  H     -326.342    -180.355    -325.817
  H     -326.721    -182.678    -326.629
  H     -327.694    -183.294    -330.162
  H     -324.982    -183.464    -329.151
  H     -325.709    -184.755    -327.291
  H     -327.681    -186.058    -329.265
  H     -326.455    -177.517    -328.220
  H     -327.610    -185.917    -326.213
  H     -326.136    -177.941    -326.564
  H     -329.050    -186.344    -327.148
  P     -323.549    -186.269    -328.312
  C     -323.830    -187.333    -325.980
  O     -323.301    -186.237    -326.722
  O     -322.835    -185.200    -329.065
  O     -323.081    -187.756    -328.689
  H     -323.479    -188.458    -328.147
  H     -323.605    -187.203    -324.942
  H     -323.391    -188.245    -326.329
  H     -324.891    -187.374    -326.112

 6  7  8  9  10  11  12  13  14  15  16  26  30  31  32  33  35 0
 6-311+G(2d,p)
 ****
 37  38 0
 6-311+G(2d,p)
 ****
 1  2  3  4  5  17  18  19  20  21  22  23  24  25 0
 3-21G
 ****
 27  28  29  34  36  39  40  41  42  43  44  45  46 0
 3-21G
 ****


