%nproc=1
%NoSave
%Mem=1900MB
#P OB98/GEN NMR

erre ene a

0 1
  C      115.065     566.604    -706.769
  O      114.649     567.789    -707.413
  H      115.197     566.812    -705.703
  H      116.016     566.255    -707.179
  H      114.305     565.822    -706.878
  P      114.446     567.771    -709.004
  C      116.488     569.341    -709.098
  O      115.174     569.082    -709.580
  C      116.980     570.707    -709.621
  O      117.147     570.597    -711.058
  C      115.983     571.845    -709.336
  O      116.580     572.956    -708.668
  C      115.334     572.097    -710.697
  O      114.830     573.402    -710.873
  C      116.441     571.687    -711.682
  N      115.939     571.299    -712.998
  C      115.715     572.316    -713.923
  O      115.927     573.520    -713.729
  N      115.230     571.911    -715.138
  C      114.953     570.629    -715.513
  O      114.525     570.326    -716.623
  C      115.190     569.604    -714.484
  C      115.663     569.972    -713.293
  O      113.044     567.574    -709.477
  O      115.402     566.578    -709.499
  H      114.067     573.515    -710.275
  H      114.862     565.789    -709.700
  H      115.069     572.638    -715.825
  H      114.963     568.575    -714.744
  H      115.852     569.247    -712.513
  H      117.145     572.513    -711.827
  H      114.479     571.397    -710.805
  H      115.209     571.511    -708.622
  H      117.970     570.910    -709.190
  H      117.146     568.541    -709.455
  H      116.492     569.346    -708.005
  P      116.753     573.083    -707.088
  C      115.032     575.032    -706.729
  O      116.385     574.572    -706.647
  O      118.016     572.506    -706.530
  O      115.520     572.205    -706.507
  H      115.829     571.802    -705.661
  H      114.979     576.047    -706.394
  H      114.409     574.419    -706.111
  H      114.696     574.974    -707.743

 6  7  8  9  10  11  12  13  14  15  16  26  31  32  33  34  35 0
 6-311+G(2d,p)
 ****
 36  37 0
 6-311+G(2d,p)
 ****
 1  2  3  4  5  17  18  19  20  21  22  23  24  25 0
 3-21G
 ****
 27  28  29  30  38  39  40  41  42  43  44  45 0
 3-21G
 ****


