%nproc=1
%NoSave
%Mem=1900MB
#P OB98/GEN NMR

erre ene a

0 1
  C     -213.588     133.423    -713.056
  O     -213.171     132.103    -712.778
  H     -214.251     133.759    -712.254
  H     -214.140     133.455    -713.998
  H     -212.732     134.102    -713.103
  P     -212.032     131.444    -713.689
  C     -213.754     130.902    -715.529
  O     -212.532     131.554    -715.207
  C     -213.546     129.953    -716.706
  O     -214.819     129.509    -717.220
  C     -212.815     130.578    -717.885
  O     -211.428     130.688    -717.626
  C     -213.180     129.602    -718.997
  O     -212.356     128.430    -718.938
  C     -214.646     129.265    -718.635
  N     -215.623     130.021    -719.421
  C     -216.214     129.350    -720.485
  O     -215.922     128.202    -720.801
  N     -217.144     130.063    -721.198
  C     -217.471     131.377    -721.002
  O     -218.273     131.982    -721.701
  C     -216.788     132.040    -719.885
  C     -215.912     131.349    -719.156
  O     -211.571     130.084    -713.276
  O     -210.837     132.512    -713.629
  H     -212.822     127.734    -719.437
  H     -210.162     132.215    -712.991
  H     -217.574     129.601    -721.982
  H     -217.016     133.083    -719.700
  H     -215.398     131.824    -718.330
  H     -214.842     128.194    -718.795
  H     -213.052     130.026    -719.991
  H     -213.248     131.557    -718.126
  H     -213.004     129.068    -716.338
  H     -214.496     131.661    -715.802
  H     -214.106     130.359    -714.649
  P     -210.526     131.737    -718.428
  C     -209.524     129.785    -719.747
  O     -210.132     131.063    -719.834
  O     -209.372     132.302    -717.666
  O     -211.553     132.893    -718.852
  H     -211.406     133.684    -718.301
  H     -209.303     129.427    -720.731
  H     -210.192     129.104    -719.262
  H     -208.618     129.859    -719.182

 6  7  8  9  10  11  12  13  14  15  16  26  31  32  33  34  35 0
 6-311+G(2d,p)
 ****
 36  37 0
 6-311+G(2d,p)
 ****
 1  2  3  4  5  17  18  19  20  21  22  23  24  25 0
 3-21G
 ****
 27  28  29  30  38  39  40  41  42  43  44  45 0
 3-21G
 ****


