%nproc=1
%NoSave
%Mem=1900MB
#P OB98/GEN NMR

erre ene a

0 1
  C      -49.054    -280.956     129.161
  O      -48.303    -280.298     128.132
  P      -48.976    -279.249     127.125
  C      -49.191    -276.959     128.287
  O      -48.397    -277.784     127.439
  C      -49.206    -275.503     127.812
  O      -50.074    -274.702     128.638
  C      -47.844    -274.815     127.837
  O      -47.065    -275.208     126.724
  C      -48.252    -273.346     127.854
  O      -48.574    -272.899     126.527
  C      -49.515    -273.378     128.729
  N      -50.297    -269.876     132.372
  C      -50.716    -269.956     131.092
  N      -50.463    -270.919     130.180
  C      -49.706    -271.890     130.718
  C      -49.200    -271.943     132.009
  C      -49.522    -270.873     132.859
  N      -49.081    -270.787     134.160
  N      -48.443    -273.081     132.190
  C      -48.506    -273.715     131.034
  N      -49.259    -273.034     130.114
  O      -50.470    -279.317     127.072
  O      -48.345    -279.594     125.693
  H      -49.394    -273.351     126.256
  H      -48.970    -279.347     124.988
  H      -51.342    -269.134     130.749
  H      -48.032    -274.663     130.815
  H      -50.281    -272.688     128.357
  H      -47.464    -272.692     128.238
  H      -47.321    -275.056     128.771
  H      -49.620    -275.490     126.795
  H      -48.781    -277.009     129.303
  H      -49.327    -269.971     134.694
  H      -48.462    -271.502     134.517
  H      -50.213    -277.358     128.303
  P      -45.721    -276.049     126.939
  C      -46.573    -278.025     125.537
  O      -45.572    -277.033     125.680
  O      -45.575    -276.701     128.273
  O      -44.555    -274.978     126.684
  H      -43.774    -275.223     127.217
  H      -46.362    -278.856     126.212
  H      -46.559    -278.385     124.506
  H      -47.564    -277.613     125.756
  H      -48.409    -281.609     129.711
  H      -49.844    -281.525     128.717
  H      -49.470    -280.225     129.822

 3  4  5  6  7  8  9  10  11  12  22  25  29  30  31  32 0
 6-311+G(2d,p)
 ****
 33  36  37 0
 6-311+G(2d,p)
 ****
 1  2  13  14  15  16  17  18  19  20  21  23  24  26 0
 3-21G
 ****
 27  28  34  35  38  39  40  41  42  43  44  45  46  47  48 0
 3-21G
 ****


