%nproc=1
%NoSave
%Mem=1900MB
#P OB98/GEN NMR

erre ene a

0 1
  C     -190.990      -6.323     299.862
  O     -191.884      -5.227     299.640
  P     -192.244      -4.917     298.103
  C     -190.692      -2.854     297.840
  O     -190.971      -4.186     297.436
  C     -189.720      -2.165     296.881
  O     -189.710      -0.720     297.087
  C     -188.269      -2.652     297.012
  O     -187.689      -2.615     295.700
  C     -187.627      -1.560     297.859
  O     -186.208      -1.576     297.757
  C     -188.322      -0.329     297.271
  N     -187.259       4.604     297.300
  C     -187.155       3.678     296.276
  N     -186.761       4.151     295.070
  N     -187.419       2.411     296.425
  C     -187.846       2.090     297.680
  C     -188.005       2.921     298.763
  C     -187.675       4.326     298.595
  O     -187.751       5.193     299.463
  N     -188.489       2.230     299.859
  C     -188.546       0.981     299.435
  N     -188.228       0.853     298.114
  O     -193.340      -3.754     298.212
  O     -192.764      -6.103     297.355
  H     -185.873      -0.789     298.239
  H     -194.238      -4.128     298.090
  H     -187.028       5.578     297.132
  H     -188.850       0.136     300.038
  H     -187.909      -0.046     296.298
  H     -187.898      -1.692     298.915
  H     -186.591       5.127     294.875
  H     -188.157      -3.646     297.458
  H     -186.712       3.499     294.302
  H     -190.071      -2.342     295.850
  H     -190.250      -2.852     298.845
  H     -191.636      -2.298     297.924
  P     -186.973      -3.949     295.170
  C     -184.499      -3.362     295.717
  O     -185.637      -4.148     296.033
  O     -186.412      -3.507     293.725
  O     -187.863      -5.139     295.055
  H     -186.522      -4.249     293.094
  H     -183.881      -3.249     296.610
  H     -184.787      -2.364     295.354
  H     -183.916      -3.867     294.934
  H     -190.821      -6.438     300.912
  H     -190.060      -6.130     299.370
  H     -191.421      -7.220     299.469

 3  4  5  6  7  8  9  10  11  12  23  26  30  31 0
 6-311+G(2d,p)
 ****
 33  35  36  37  38 0
 6-311+G(2d,p)
 ****
 1  2  13  14  15  16  17  18  19  20  21  22  24  25 0
 3-21G
 ****
 27  28  29  32  34  39  40  41  42  43  44  45  46  47  48  49 0
 3-21G
 ****


