%nproc=1
%NoSave
%Mem=1900MB
#P OB98/GEN NMR

erre ene a

0 1
  C     -362.725     564.832    -208.877
  O     -362.085     564.557    -210.107
  H     -363.086     563.887    -208.456
  H     -363.582     565.502    -209.021
  H     -362.016     565.277    -208.176
  P     -361.694     565.799    -211.050
  C     -359.366     564.856    -211.675
  O     -360.673     565.203    -212.143
  C     -358.661     563.932    -212.674
  O     -359.274     562.621    -212.656
  C     -358.757     564.398    -214.121
  O     -358.013     565.573    -214.398
  C     -358.470     563.121    -214.894
  O     -357.078     562.882    -215.099
  C     -359.068     562.036    -213.958
  N     -360.290     561.454    -214.499
  C     -360.122     560.289    -215.252
  O     -359.026     559.768    -215.479
  N     -361.268     559.746    -215.770
  C     -362.531     560.280    -215.661
  O     -363.515     559.772    -216.187
  C     -362.631     561.519    -214.879
  C     -361.517     562.043    -214.339
  O     -361.177     567.021    -210.339
  O     -363.023     566.064    -211.900
  H     -356.663     562.836    -214.219
  H     -363.007     566.958    -212.320
  H     -361.184     558.899    -216.311
  H     -363.611     561.976    -214.771
  H     -361.571     562.958    -213.758
  H     -358.338     561.219    -213.821
  H     -358.936     563.147    -215.888
  H     -359.805     564.654    -214.321
  H     -357.615     563.819    -212.363
  H     -359.486     564.328    -210.723
  H     -358.776     565.763    -211.513
  P     -358.351     566.560    -215.607
  C     -358.832     568.656    -214.142
  O     -358.014     568.065    -215.142
  O     -359.641     566.309    -216.342
  O     -357.149     566.240    -216.633
  H     -357.500     566.324    -217.541
  H     -358.488     569.649    -213.940
  H     -358.780     568.072    -213.247
  H     -359.845     568.693    -214.485

 6  7  8  9  10  11  12  13  14  15  16  26  31  32  33  34  35 0
 6-311+G(2d,p)
 ****
 36  37 0
 6-311+G(2d,p)
 ****
 1  2  3  4  5  17  18  19  20  21  22  23  24  25 0
 3-21G
 ****
 27  28  29  30  38  39  40  41  42  43  44  45 0
 3-21G
 ****


