%nproc=1
%NoSave
%Mem=1900MB
#P OB98/GEN NMR

erre ene a

0 1
  C     -549.390    -451.591    -135.882
  O     -549.143    -451.943    -134.536
  H     -548.681    -450.811    -136.175
  H     -550.408    -451.205    -135.996
  H     -549.246    -452.461    -136.528
  P     -550.119    -453.041    -133.889
  C     -548.410    -454.593    -132.745
  O     -549.347    -453.536    -132.572
  C     -547.021    -454.029    -133.048
  O     -546.612    -453.185    -131.940
  C     -545.946    -455.110    -133.226
  O     -545.019    -454.685    -134.229
  C     -545.251    -455.129    -131.877
  O     -543.926    -455.654    -131.959
  C     -545.333    -453.653    -131.480
  N     -541.974    -453.358    -127.668
  C     -541.820    -453.358    -129.008
  N     -542.781    -453.416    -129.956
  C     -544.003    -453.423    -129.396
  C     -544.316    -453.424    -128.049
  C     -543.226    -453.402    -127.157
  N     -543.367    -453.436    -125.789
  N     -545.682    -453.480    -127.870
  C     -546.188    -453.499    -129.091
  N     -545.208    -453.486    -130.044
  O     -550.565    -454.127    -134.810
  O     -551.288    -452.130    -133.283
  H     -543.446    -455.414    -131.140
  H     -550.927    -451.370    -132.790
  H     -540.797    -453.316    -129.368
  H     -547.247    -453.541    -129.336
  H     -544.549    -453.045    -131.949
  H     -545.814    -455.751    -131.173
  H     -546.356    -456.082    -133.490
  H     -547.088    -453.384    -133.933
  H     -548.728    -455.249    -133.563
  H     -542.532    -453.413    -125.225
  H     -544.292    -453.461    -125.388
  H     -548.389    -455.179    -131.819
  P     -545.253    -455.143    -135.746
  C     -543.880    -453.488    -137.167
  O     -543.936    -454.789    -136.598
  O     -546.540    -454.709    -136.364
  O     -545.175    -456.743    -135.646
  H     -545.875    -457.133    -136.214
  H     -542.963    -453.374    -137.706
  H     -543.930    -452.756    -136.388
  H     -544.705    -453.355    -137.835

 6  7  8  9  10  11  12  13  14  15  25  28  32  33  34  35 0
 6-311+G(2d,p)
 ****
 36  39  40 0
 6-311+G(2d,p)
 ****
 1  2  3  4  5  16  17  18  19  20  21  22  23  24 0
 3-21G
 ****
 26  27  29  30  31  37  38  41  42  43  44  45  46  47 0
 3-21G
 ****
 48 0
 3-21G
 ****


