%nproc=1
%NoSave
%Mem=1900MB
#P OB98/GEN NMR

erre ene a

0 1
  C     -383.516     107.953    -190.178
  O     -382.374     108.774    -190.359
  P     -381.657     109.352    -189.042
  C     -381.630     111.637    -187.805
  O     -382.251     110.821    -188.790
  C     -382.133     113.078    -187.899
  O     -381.570     113.696    -189.090
  C     -383.663     113.219    -187.988
  O     -384.006     114.420    -187.287
  C     -383.881     113.373    -189.482
  O     -385.148     113.900    -189.828
  C     -382.677     114.238    -189.847
  N     -382.523     117.066    -194.103
  C     -382.790     117.390    -192.819
  N     -382.803     116.583    -191.735
  C     -382.489     115.323    -192.080
  C     -382.211     114.841    -193.348
  C     -382.234     115.777    -194.394
  N     -381.970     115.443    -195.709
  N     -381.966     113.484    -193.315
  C     -382.090     113.149    -192.046
  N     -382.385     114.231    -191.260
  O     -380.165     109.640    -189.542
  O     -381.683     108.439    -187.856
  H     -385.856     113.385    -189.390
  H     -379.511     109.414    -188.852
  H     -383.023     118.433    -192.633
  H     -381.992     112.149    -191.650
  H     -382.814     115.284    -189.537
  H     -383.804     112.386    -189.954
  H     -384.199     112.376    -187.542
  H     -381.753     113.632    -187.032
  H     -380.549     111.638    -187.967
  H     -382.205     116.137    -196.402
  H     -381.964     114.455    -195.937
  H     -381.824     111.215    -186.814
  P     -385.550     114.703    -186.948
  C     -387.223     116.191    -188.209
  O     -386.150     115.280    -188.322
  O     -385.427     116.035    -186.066
  O     -386.290     113.588    -186.293
  H     -384.885     116.710    -186.510
  H     -387.463     116.575    -189.204
  H     -386.945     117.029    -187.563
  H     -388.104     115.683    -187.804
  H     -383.887     107.642    -191.132
  H     -384.274     108.505    -189.663
  H     -383.249     107.092    -189.602

 3  4  5  6  7  8  9  10  11  12  22  25  29  30  31  32 0
 6-311+G(2d,p)
 ****
 33  36  37 0
 6-311+G(2d,p)
 ****
 1  2  13  14  15  16  17  18  19  20  21  23  24  26 0
 3-21G
 ****
 27  28  34  35  38  39  40  41  42  43  44  45  46  47  48 0
 3-21G
 ****


