%nproc=1
%NoSave
%Mem=1900MB
#P OB98/GEN NMR

erre ene a

0 1
  C       41.758     246.730      94.524
  O       41.213     245.458      94.810
  H       42.834     246.625      94.369
  H       41.586     247.414      95.359
  H       41.307     247.138      93.615
  P       39.648     245.419      95.173
  C       39.206     246.335      92.768
  O       39.004     246.492      94.165
  C       37.993     246.861      92.011
  O       38.247     246.873      90.590
  C       36.733     246.022      92.192
  O       36.077     246.268      93.425
  C       35.912     246.503      91.010
  O       35.366     247.803      91.299
  C       36.995     246.588      89.909
  N       37.107     245.361      89.119
  C       36.498     245.368      87.858
  O       35.895     246.362      87.459
  N       36.559     244.230      87.087
  C       37.181     243.183      87.531
  N       37.199     242.080      86.733
  C       37.850     243.137      88.843
  C       37.774     244.247      89.576
  O       39.569     246.174      96.582
  O       39.005     244.074      95.157
  H       36.120     248.389      91.499
  H       38.624     246.313      96.834
  H       38.348     242.235      89.174
  H       38.241     244.286      90.555
  H       36.795     247.424      89.228
  H       35.073     245.845      90.774
  H       36.939     244.953      92.064
  H       37.826     247.902      92.322
  H       36.678     242.120      85.866
  H       39.351     245.271      92.559
  H       37.495     241.172      87.064
  H       40.098     246.887      92.455
  P       34.725     245.454      93.724
  C       36.187     243.571      94.757
  O       35.130     243.908      93.867
  O       33.957     245.502      92.322
  O       33.891     246.004      94.840
  H       32.997     245.617      92.449
  H       36.340     242.512      94.744
  H       35.932     243.883      95.748
  H       37.085     244.065      94.448

 6  7  8  9  10  11  12  13  14  15  16  26  30  31  32  33  35 0
 6-311+G(2d,p)
 ****
 37  38 0
 6-311+G(2d,p)
 ****
 1  2  3  4  5  17  18  19  20  21  22  23  24  25 0
 3-21G
 ****
 27  28  29  34  36  39  40  41  42  43  44  45  46 0
 3-21G
 ****


