%nproc=1
%NoSave
%Mem=1900MB
#P OB98/GEN NMR

erre ene a

0 1
  C      285.171     394.078    -644.641
  O      284.604     395.074    -645.464
  H      284.574     393.169    -644.722
  H      285.162     394.410    -643.598
  H      286.196     393.859    -644.956
  P      285.433     396.442    -645.627
  C      284.792     398.612    -646.964
  O      284.371     397.533    -646.148
  C      283.609     399.171    -647.758
  O      283.307     398.261    -648.855
  C      282.331     399.338    -646.928
  O      281.633     400.501    -647.395
  C      281.516     398.101    -647.285
  O      280.126     398.286    -647.060
  C      281.923     397.894    -648.757
  N      281.701     396.513    -649.210
  C      280.479     396.254    -649.842
  O      279.656     397.153    -649.995
  N      280.213     394.967    -650.254
  C      281.057     394.018    -649.990
  N      280.719     392.761    -650.401
  C      282.329     394.246    -649.283
  C      282.591     395.501    -648.928
  O      286.324     396.135    -646.921
  O      286.216     396.836    -644.417
  H      279.645     397.488    -647.369
  H      285.823     395.710    -647.642
  H      283.001     393.414    -649.075
  H      283.510     395.755    -648.412
  H      281.351     398.559    -649.415
  H      281.852     397.244    -646.675
  H      282.528     399.425    -645.862
  H      283.911     400.125    -648.216
  H      279.826     392.652    -650.867
  H      285.569     398.278    -647.661
  H      281.267     391.946    -650.201
  H      285.215     399.393    -646.319
  P      281.191     401.621    -646.335
  C      280.826     404.174    -646.560
  O      280.594     402.892    -647.121
  O      282.180     401.945    -645.272
  O      279.863     400.972    -645.684
  H      279.885     401.156    -644.718
  H      280.377     404.921    -647.181
  H      281.879     404.350    -646.495
  H      280.396     404.218    -645.581

 6  7  8  9  10  11  12  13  14  15  16  26  30  31  32  33  35 0
 6-311+G(2d,p)
 ****
 37  38 0
 6-311+G(2d,p)
 ****
 1  2  3  4  5  17  18  19  20  21  22  23  24  25 0
 3-21G
 ****
 27  28  29  34  36  39  40  41  42  43  44  45  46 0
 3-21G
 ****


