%nproc=1
%NoSave
%Mem=1900MB
#P OB98/GEN NMR

erre ene a

0 1
  C      -26.526    -206.244    -134.884
  O      -27.271    -206.672    -136.007
  H      -27.057    -206.542    -133.977
  H      -26.424    -205.155    -134.894
  H      -25.538    -206.711    -134.885
  P      -26.644    -206.341    -137.446
  C      -27.262    -203.845    -137.011
  O      -26.274    -204.779    -137.419
  C      -26.960    -202.460    -137.597
  O      -26.807    -202.588    -139.042
  C      -28.074    -201.428    -137.360
  O      -27.469    -200.126    -137.312
  C      -28.895    -201.563    -138.633
  O      -29.787    -200.481    -138.776
  C      -27.764    -201.692    -139.648
  N      -29.986    -200.532    -144.104
  C      -29.642    -199.766    -143.045
  N      -29.042    -200.144    -141.899
  C      -28.775    -201.462    -141.912
  C      -29.059    -202.366    -142.923
  C      -29.702    -201.854    -144.064
  N      -30.062    -202.632    -145.139
  N      -28.640    -203.637    -142.571
  C      -28.111    -203.499    -141.372
  N      -28.179    -202.205    -140.932
  O      -27.907    -206.417    -138.424
  O      -25.540    -207.241    -137.888
  H      -29.346    -199.633    -138.548
  H      -27.960    -207.301    -138.832
  H      -29.883    -198.708    -143.130
  H      -27.678    -204.296    -140.779
  H      -27.258    -200.734    -139.821
  H      -29.505    -202.471    -138.609
  H      -28.639    -201.602    -136.440
  H      -25.999    -202.107    -137.207
  H      -27.259    -203.793    -135.916
  H      -28.246    -204.179    -137.353
  H      -30.533    -202.189    -145.913
  H      -29.871    -203.621    -145.116
  P      -26.957    -199.552    -135.900
  C      -29.140    -198.172    -135.473
  O      -28.233    -199.164    -135.009
  O      -26.391    -198.108    -136.314
  O      -25.900    -200.357    -135.218
  H      -25.686    -197.845    -135.695
  H      -29.925    -198.043    -134.757
  H      -29.558    -198.480    -136.408
  H      -28.620    -197.246    -135.603

 6  7  8  9  10  11  12  13  14  15  25  28  32  33  34  35 0
 6-311+G(2d,p)
 ****
 36  37  40 0
 6-311+G(2d,p)
 ****
 1  2  3  4  5  16  17  18  19  20  21  22  23  24 0
 3-21G
 ****
 26  27  29  30  31  38  39 41  42  43  44  45  46  47  48 0
 3-21G
 ****


