%nproc=1
%NoSave
%Mem=1900MB
#P OB98/GEN NMR

erre ene a

0 1
  C     -333.705     -16.314    -771.803
  O     -333.012     -17.548    -771.762
  H     -333.057     -15.528    -772.196
  H     -334.567     -16.418    -772.463
  H     -334.047     -16.034    -770.802
  P     -331.698     -17.610    -770.842
  C     -330.061     -16.184    -772.264
  O     -330.441     -17.475    -771.845
  C     -328.596     -16.212    -772.723
  O     -327.707     -16.402    -771.590
  C     -328.276     -17.350    -773.712
  O     -328.644     -17.029    -775.028
  C     -326.754     -17.394    -773.553
  O     -326.152     -16.316    -774.301
  C     -326.572     -17.185    -772.041
  N     -323.459     -20.663    -769.929
  C     -323.237     -19.549    -770.658
  N     -324.104     -18.677    -771.195
  C     -325.361     -19.055    -770.916
  C     -325.777     -20.157    -770.200
  C     -324.743     -20.999    -769.682
  N     -324.997     -22.142    -768.946
  N     -327.145     -20.236    -770.141
  C     -327.562     -19.160    -770.786
  N     -326.517     -18.428    -771.284
  O     -331.645     -19.138    -770.382
  O     -331.673     -16.663    -769.679
  H     -326.609     -16.277    -775.154
  H     -331.082     -19.227    -769.573
  H     -322.157     -19.326    -770.827
  H     -328.610     -18.885    -770.934
  H     -325.666     -16.610    -771.795
  H     -326.327     -18.325    -773.935
  H     -328.704     -18.301    -773.375
  H     -328.370     -15.231    -773.185
  H     -330.159     -15.478    -771.426
  H     -324.217     -22.753    -768.797
  H     -325.960     -22.458    -768.914
  H     -330.714     -15.856    -773.086
  P     -329.500     -18.133    -775.832
  C     -327.689     -19.931    -776.283
  O     -328.486     -18.873    -776.822
  O     -330.411     -17.235    -776.823
  O     -330.347     -19.018    -774.954
  H     -331.244     -17.692    -777.058
  H     -327.062     -20.332    -777.052
  H     -328.328     -20.702    -775.905
  H     -327.081     -19.551    -775.489

 6  7  8  9  10  11  12  13  14  15  25  28  32  33  34  35 0
 6-311+G(2d,p)
 ****
 36  39  40 0
 6-311+G(2d,p)
 ****
 1  2  3  4  5  16  17  18  19  20  21  22  23  24 0
 3-21G
 ****
 26  27  29  30  31  37  38  41  42  43  44  45  46  47 0
 3-21G
 ****
 48 0
 3-21G
 ****


