%nproc=1
%NoSave
%Mem=1900MB
#P OB98/GEN NMR

erre ene a

0 1
  C     1338.881    -196.191     425.546
  O     1340.114    -195.548     425.312
  H     1338.321    -195.679     426.324
  H     1338.293    -196.185     424.622
  H     1339.059    -197.232     425.841
  P     1341.113    -195.410     426.557
  C     1340.747    -192.942     427.254
  O     1341.598    -193.879     426.621
  C     1341.528    -191.679     427.602
  O     1342.498    -192.006     428.632
  C     1342.289    -191.053     426.417
  O     1341.855    -189.697     426.233
  C     1343.746    -191.030     426.858
  O     1344.432    -189.844     426.490
  C     1343.654    -191.212     428.381
  N     1346.957    -191.176     432.257
  C     1345.687    -190.737     432.175
  N     1344.817    -190.867     431.143
  C     1345.387    -191.563     430.129
  C     1346.661    -192.095     430.105
  C     1347.473    -191.871     431.212
  N     1348.792    -192.278     431.283
  N     1346.878    -192.733     428.883
  C     1345.774    -192.558     428.207
  N     1344.850    -191.830     428.903
  O     1342.416    -196.206     426.075
  O     1340.585    -195.957     427.852
  H     1345.249    -189.825     427.039
  H     1342.702    -196.820     426.772
  H     1345.319    -190.197     433.039
  H     1345.600    -192.874     427.187
  H     1343.512    -190.233     428.890
  H     1344.265    -191.902     426.398
  H     1342.164    -191.611     425.485
  H     1340.842    -190.950     428.042
  H     1340.349    -193.382     428.180
  H     1349.329    -191.958     432.073
  H     1349.215    -192.678     430.463
  H     1339.902    -192.710     426.581
  P     1340.456    -189.490     425.481
  C     1341.108    -190.443     423.152
  O     1340.761    -189.296     423.915
  O     1340.008    -188.016     425.940
  O     1339.432    -190.513     425.814
  H     1339.050    -187.924     425.919
  H     1341.280    -190.156     422.136
  H     1340.309    -191.153     423.192
  H     1341.996    -190.883     423.554

 6  7  8  9  10  11  12  13  14  15  25  28  32  33  34  35 0
 6-311+G(2d,p)
 ****
 36  39  40 0
 6-311+G(2d,p)
 ****
 1  2  3  4  5  16  17  18  19  20  21  22  23  24 0
 3-21G
 ****
 26  27  29  30  31  37  38  41  42  43  44  45  46  47  48 0
 3-21G
 ****


