%nproc=1
%NoSave
%Mem=1900MB
#P OB98/GEN NMR

erre ene a

0 1
  C      724.231     402.528     535.495
  O      725.069     403.435     534.806
  H      723.209     402.919     535.493
  H      724.566     402.428     536.532
  H      724.244     401.552     535.006
  P      726.561     402.937     534.505
  C      728.848     403.613     535.590
  O      727.473     403.330     535.773
  C      729.333     404.566     536.686
  O      728.729     405.864     536.543
  C      728.955     404.143     538.099
  O      729.697     403.038     538.562
  C      729.240     405.427     538.870
  O      730.619     405.529     539.229
  C      728.867     406.512     537.834
  N      727.656     407.233     538.208
  C      727.762     408.012     539.387
  O      728.830     408.057     539.988
  N      726.650     408.665     539.838
  C      725.521     408.522     539.196
  N      724.443     409.181     539.725
  C      725.371     407.728     537.969
  C      726.475     407.114     537.535
  O      727.044     403.967     533.378
  O      726.674     401.501     534.108
  H      730.706     406.341     539.765
  H      726.882     404.891     533.594
  H      724.414     407.670     537.482
  H      726.443     406.493     536.642
  H      729.680     407.243     537.736
  H      728.667     405.478     539.792
  H      727.877     403.942     538.155
  H      730.426     404.674     536.593
  H      724.588     409.681     540.603
  H      729.031     404.046     534.607
  H      723.499     409.090     539.370
  H      729.395     402.662     535.636
  P      729.028     401.874     539.414
  C      727.912     401.666     541.736
  O      728.418     402.549     540.742
  O      729.892     400.685     539.688
  O      727.698     401.532     538.576
  H      727.089     402.277     538.460
  H      727.538     402.235     542.562
  H      728.697     401.021     542.073
  H      727.121     401.078     541.321

 6  7  8  9  10  11  12  13  14  15  16  26  30  31  32  33  35 0
 6-311+G(2d,p)
 ****
 37  38 0
 6-311+G(2d,p)
 ****
 1  2  3  4  5  17  18  19  20  21  22  23  24  25 0
 3-21G
 ****
 27  28  29  34  36  39  40  41  42  43  44  45  46 0
 3-21G
 ****


