%nproc=1
%NoSave
%Mem=1900MB
#P OB98/GEN NMR

erre ene a

0 1
  C      324.250     -34.132     148.361
  O      323.993     -34.075     149.751
  H      324.341     -35.179     148.062
  H      325.188     -33.619     148.134
  H      323.431     -33.673     147.802
  P      323.712     -32.628     150.381
  C      321.330     -33.254     151.229
  O      322.650     -32.852     151.565
  C      320.826     -34.276     152.249
  O      321.437     -35.561     151.959
  C      321.178     -33.915     153.697
  O      320.100     -34.306     154.553
  C      322.399     -34.770     153.981
  O      322.610     -35.026     155.364
  C      322.068     -36.028     153.171
  N      323.253     -36.826     152.865
  C      323.263     -38.149     153.293
  O      322.321     -38.715     153.846
  N      324.429     -38.835     153.067
  C      325.561     -38.333     152.493
  O      326.584     -38.992     152.338
  C      325.493     -36.928     152.068
  C      324.359     -36.248     152.271
  O      322.847     -31.895     149.251
  O      324.921     -31.849     150.775
  H      323.431     -31.416     148.631
  H      322.629     -34.165     155.831
  H      324.454     -39.797     153.371
  H      326.374     -36.493     151.616
  H      324.282     -35.207     151.984
  H      321.336     -36.644     153.704
  H      323.299     -34.284     153.586
  H      321.387     -32.853     153.832
  H      319.742     -34.397     152.125
  H      321.336     -33.709     150.233
  H      320.677     -32.377     151.216
  P      319.085     -33.160     155.037
  C      317.311     -34.978     155.656
  O      318.086     -33.866     156.076
  O      318.204     -32.942     153.721
  O      319.783     -31.941     155.543
  H      318.031     -33.764     153.232
  H      316.707     -35.320     156.470
  H      317.961     -35.767     155.339
  H      316.681     -34.686     154.842

 6  7  8  9  10  11  12  13  14  15  16  27  31  32  33  34  35 0
 6-311+G(2d,p)
 ****
 36  37 0
 6-311+G(2d,p)
 ****
 1  2  3  4  5  17  18  19  20  21  22  23  24  25 0
 3-21G
 ****
 26  28  29  30  38  39  40  41  42  43  44  45 0
 3-21G
 ****


