%nproc=1
%NoSave
%Mem=1900MB
#P OB98/GEN NMR

erre ene a

0 1
  C     -223.932     153.498     -71.174
  O     -225.174     152.831     -71.017
  P     -225.538     152.096     -69.640
  C     -226.128     149.657     -69.079
  O     -225.351     150.522     -69.899
  C     -226.191     148.257     -69.684
  O     -227.035     148.292     -70.859
  C     -224.832     147.719     -70.115
  O     -224.792     146.310     -69.870
  C     -224.797     147.943     -71.616
  O     -223.916     147.008     -72.262
  C     -226.278     147.794     -71.977
  N     -225.360     148.558     -76.969
  C     -224.831     147.688     -76.082
  N     -225.102     147.558     -74.765
  C     -226.072     148.410     -74.397
  C     -226.711     149.351     -75.191
  C     -226.317     149.412     -76.539
  N     -226.871     150.291     -77.446
  N     -227.631     150.069     -74.453
  C     -227.563     149.556     -73.245
  N     -226.643     148.544     -73.163
  O     -226.851     152.475     -69.051
  O     -224.323     152.448     -68.664
  H     -223.876     147.257     -73.208
  H     -224.651     152.599     -67.756
  H     -224.083     147.010     -76.482
  H     -228.144     149.884     -72.395
  H     -226.552     146.743     -72.133
  H     -224.430     148.953     -71.829
  H     -223.997     148.211     -69.602
  H     -226.663     147.583     -68.958
  H     -227.141     150.064     -69.010
  H     -226.614     150.179     -78.413
  H     -227.696     150.803     -77.169
  H     -225.697     149.627     -68.073
  P     -223.773     145.824     -68.720
  C     -221.192     145.483     -68.767
  O     -222.317     146.135     -69.312
  O     -224.047     144.424     -68.284
  O     -224.018     146.937     -67.596
  H     -224.357     147.774     -67.985
  H     -220.294     145.854     -69.270
  H     -221.262     144.404     -68.933
  H     -221.109     145.692     -67.697
  H     -223.877     153.922     -72.155
  H     -223.133     152.799     -71.042
  H     -223.850     154.276     -70.444

 3  4  5  6  7  8  9  10  11  12  22  25  29  30  31  32 0
 6-311+G(2d,p)
 ****
 33  36  37 0
 6-311+G(2d,p)
 ****
 1  2  13  14  15  16  17  18  19  20  21  23  24  26 0
 3-21G
 ****
 27  28  34  35  38  39  40  41  42  43  44  45  46  47  48 0
 3-21G
 ****


