%nproc=1
%NoSave
%Mem=1900MB
#P OB98/GEN NMR

erre ene a

0 1
  C       -3.733     -22.163       1.429
  O       -2.370     -22.307       1.094
  H       -4.273     -23.054       1.098
  H       -4.152     -21.295       0.914
  H       -3.867     -22.055       2.508
  P       -1.305     -21.278       1.708
  C       -0.111     -19.172       0.816
  O       -0.832     -20.351       0.487
  C       -0.590     -18.005      -0.050
  O       -0.225     -18.286      -1.436
  C       -2.116     -17.790      -0.003
  O       -2.383     -16.389      -0.121
  C       -2.561     -18.513      -1.258
  O       -3.835     -18.097      -1.681
  C       -1.427     -18.162      -2.216
  N       -1.425     -19.035      -3.387
  C       -1.728     -18.447      -4.609
  O       -2.001     -17.256      -4.744
  N       -1.783     -19.293      -5.683
  C       -1.678     -20.651      -5.635
  O       -1.814     -21.367      -6.616
  C       -1.411     -21.223      -4.305
  C       -1.292     -20.402      -3.259
  O       -0.194     -21.882       2.499
  O       -2.190     -20.264       2.575
  H       -4.122     -18.630      -2.445
  H       -1.636     -19.815       3.240
  H       -1.991     -18.880      -6.578
  H       -1.337     -22.300      -4.229
  H       -1.113     -20.790      -2.263
  H       -1.502     -17.118      -2.547
  H       -2.604     -19.592      -1.077
  H       -2.577     -18.184       0.906
  H       -0.053     -17.096       0.244
  H        0.953     -19.359       0.634
  H       -0.257     -18.939       1.875
  P       -3.467     -15.652       0.806
  C       -5.945     -14.981       0.779
  O       -4.934     -15.766       0.156
  O       -3.088     -14.262       1.206
  O       -3.568     -16.583       2.106
  H       -3.547     -16.021       2.904
  H       -6.875     -15.130       0.272
  H       -5.674     -13.947       0.731
  H       -6.046     -15.276       1.803

 6  7  8  9  10  11  12  13  14  15  16  26  31  32  33  34  35 0
 6-311+G(2d,p)
 ****
 36  37 0
 6-311+G(2d,p)
 ****
 1  2  3  4  5  17  18  19  20  21  22  23  24  25 0
 3-21G
 ****
 27  28  29  30  38  39  40  41  42  43  44  45 0
 3-21G
 ****


