%nproc=1
%NoSave
%Mem=1900MB
#P OB98/GEN NMR

erre ene a

0 1
  C     -197.289     206.097    -160.388
  O     -197.484     205.538    -161.667
  H     -196.231     206.351    -160.278
  H     -197.550     205.374    -159.610
  H     -197.882     207.007    -160.269
  P     -198.948     205.028    -162.089
  C     -199.115     206.132    -164.401
  O     -198.910     204.914    -163.695
  C     -198.463     206.081    -165.782
  O     -197.018     206.027    -165.638
  C     -198.889     204.869    -166.624
  O     -199.225     205.292    -167.947
  C     -197.636     204.006    -166.668
  O     -197.595     203.139    -167.797
  C     -196.546     205.082    -166.614
  N     -195.243     204.526    -166.266
  C     -194.562     203.863    -167.292
  O     -195.061     203.782    -168.416
  N     -193.361     203.265    -167.009
  C     -192.903     203.283    -165.796
  N     -191.723     202.647    -165.579
  C     -193.604     203.947    -164.675
  C     -194.756     204.545    -164.980
  O     -200.073     205.841    -161.539
  O     -198.998     203.497    -161.629
  H     -197.479     203.684    -168.604
  H     -199.939     203.224    -161.525
  H     -193.183     203.928    -163.683
  H     -195.343     205.057    -164.225
  H     -196.457     205.602    -167.577
  H     -197.593     203.387    -165.763
  H     -199.733     204.326    -166.199
  H     -198.683     207.023    -166.304
  H     -191.279     202.200    -166.374
  H     -198.697     206.955    -163.809
  H     -191.281     202.573    -164.674
  H     -200.193     206.284    -164.518
  P     -199.997     204.219    -168.860
  C     -202.090     205.742    -169.052
  O     -201.087     205.007    -169.736
  O     -200.872     203.398    -167.802
  O     -199.081     203.325    -169.630
  H     -200.516     202.492    -167.709
  H     -202.738     206.209    -169.764
  H     -201.630     206.492    -168.443
  H     -202.658     205.079    -168.433

 6  7  8  9  10  11  12  13  14  15  16  26  30  31  32  33  35 0
 6-311+G(2d,p)
 ****
 37  38 0
 6-311+G(2d,p)
 ****
 1  2  3  4  5  17  18  19  20  21  22  23  24  25 0
 3-21G
 ****
 27  28  29  34  36  39  40  41  42  43  44  45  46 0
 3-21G
 ****


