%nproc=1
%NoSave
%Mem=1900MB
#P OB98/GEN NMR

erre ene a

0 1
  C     -119.339    -885.701    -237.205
  O     -118.263    -886.608    -237.108
  H     -119.869    -885.689    -236.252
  H     -120.033    -886.019    -237.985
  H     -118.976    -884.692    -237.417
  P     -117.317    -886.812    -238.387
  C     -115.156    -886.138    -237.127
  O     -116.092    -885.801    -238.139
  C     -113.957    -885.201    -237.183
  O     -114.350    -883.828    -236.957
  C     -112.880    -885.465    -236.133
  O     -112.103    -886.621    -236.389
  C     -112.077    -884.183    -236.251
  O     -111.264    -884.233    -237.438
  C     -113.205    -883.137    -236.383
  N     -113.565    -882.531    -235.099
  C     -113.106    -881.224    -234.872
  O     -112.425    -880.642    -235.717
  N     -113.397    -880.625    -233.675
  C     -114.068    -881.267    -232.771
  N     -114.322    -880.628    -231.598
  C     -114.554    -882.651    -232.962
  C     -114.269    -883.212    -234.137
  O     -117.981    -886.699    -239.722
  O     -116.614    -888.234    -238.145
  H     -110.613    -884.945    -237.307
  H     -116.025    -888.414    -238.918
  H     -115.081    -883.157    -232.168
  H     -114.590    -884.228    -234.344
  H     -112.920    -882.340    -237.081
  H     -111.404    -884.018    -235.407
  H     -113.322    -885.508    -235.126
  H     -113.544    -885.252    -238.199
  H     -113.972    -879.681    -231.496
  H     -114.848    -887.178    -237.278
  H     -114.766    -881.080    -230.812
  H     -115.623    -886.047    -236.140
  P     -112.353    -887.897    -235.441
  C     -112.675    -889.856    -237.132
  O     -113.280    -888.900    -236.281
  O     -113.329    -887.323    -234.312
  O     -111.121    -888.525    -234.878
  H     -112.820    -887.094    -233.505
  H     -113.434    -890.438    -237.612
  H     -112.044    -890.499    -236.554
  H     -112.089    -889.354    -237.873

 6  7  8  9  10  11  12  13  14  15  16  26  30  31  32  33  35 0
 6-311+G(2d,p)
 ****
 37  38 0
 6-311+G(2d,p)
 ****
 1  2  3  4  5  17  18  19  20  21  22  23  24  25 0
 3-21G
 ****
 27  28  29  34  36  39  40  41  42  43  44  45  46 0
 3-21G
 ****


