%nproc=1
%NoSave
%Mem=1900MB
#P OB98/GEN NMR

erre ene a

0 1
  C     -591.881     309.917     228.764
  O     -593.255     310.292     228.647
  P     -594.333     309.395     229.424
  C     -595.513     311.198     230.916
  O     -595.556     310.377     229.754
  C     -596.832     311.943     231.091
  O     -596.956     312.999     230.104
  C     -598.066     311.067     230.900
  O     -598.279     310.224     232.018
  C     -599.137     312.130     230.682
  O     -599.562     312.679     231.944
  C     -598.370     313.199     229.879
  N     -598.687     313.189     228.451
  C     -599.461     314.257     228.001
  O     -599.886     315.146     228.739
  N     -599.760     314.253     226.667
  C     -599.387     313.298     225.766
  O     -599.670     313.351     224.572
  C     -598.614     312.170     226.310
  C     -598.302     312.168     227.612
  O     -593.608     309.176     230.825
  O     -594.691     308.144     228.684
  H     -593.081     309.946     231.109
  H     -598.751     312.988     232.395
  H     -600.308     315.026     226.310
  H     -598.325     311.380     225.629
  H     -597.736     311.346     228.038
  H     -598.598     314.200     230.269
  H     -600.026     311.734     230.177
  H     -597.959     310.462     229.993
  H     -596.841     312.401     232.084
  H     -594.698     311.928     230.825
  H     -595.296     310.570     231.786
  P     -597.878     308.678     231.842
  C     -597.158     308.309     234.332
  O     -598.056     308.000     233.288
  O     -596.299     308.786     231.650
  O     -598.595     307.998     230.724
  H     -595.875     309.394     232.275
  H     -597.628     308.047     235.289
  H     -596.915     309.374     234.349
  H     -596.243     307.724     234.214
  H     -591.277     310.596     228.200
  H     -591.749     308.924     228.387
  H     -591.589     309.950     229.793

 3  4  5  6  7  8  9  10  11  12  13  24  28  29  30  31  32 0
 6-311+G(2d,p)
 ****
 33  34 0
 6-311+G(2d,p)
 ****
 1  2  14  15  16  17  18  19  20  21  22  23  25  26  27 0
 3-21G
 ****
 35  36  37  38  39  40  41  42  43  44  45 0
 3-21G
 ****


