%nproc=1
%NoSave
%Mem=1900MB
#P OB98/GEN NMR

erre ene a

0 1
  C     -283.813    -421.072     209.906
  O     -282.682    -420.281     209.573
  P     -281.333    -421.057     209.146
  C     -279.205    -420.999     210.630
  O     -280.576    -421.392     210.517
  C     -279.073    -419.798     211.552
  O     -279.565    -420.133     212.871
  C     -277.632    -419.332     211.777
  O     -277.177    -418.509     210.698
  C     -277.783    -418.527     213.048
  O     -278.269    -417.199     212.740
  C     -278.840    -419.321     213.825
  N     -278.733    -420.378     218.790
  C     -279.443    -419.411     218.096
  N     -280.257    -418.627     218.842
  N     -279.355    -419.222     216.807
  C     -278.526    -420.105     216.190
  C     -277.763    -421.109     216.757
  C     -277.831    -421.266     218.197
  O     -277.177    -422.062     218.864
  N     -277.061    -421.801     215.813
  C     -277.423    -421.247     214.666
  N     -278.287    -420.193     214.847
  O     -280.441    -419.902     208.489
  O     -281.541    -422.208     208.207
  H     -277.682    -416.839     212.056
  H     -279.808    -420.298     207.856
  H     -278.843    -420.486     219.775
  H     -277.089    -421.583     213.684
  H     -279.577    -418.653     214.295
  H     -276.825    -418.389     213.579
  H     -280.467    -418.810     219.814
  H     -276.967    -420.177     211.950
  H     -280.821    -417.940     218.349
  H     -279.688    -418.980     211.152
  H     -278.837    -420.726     209.636
  H     -278.618    -421.842     211.001
  P     -275.597    -418.524     210.410
  C     -274.509    -416.377     211.377
  O     -274.939    -417.703     211.620
  O     -275.456    -417.548     209.148
  O     -275.032    -419.878     210.151
  H     -274.654    -417.772     208.630
  H     -275.169    -415.852     210.690
  H     -273.496    -416.386     210.981
  H     -274.498    -415.837     212.334
  H     -284.630    -420.433     210.168
  H     -283.574    -421.704     210.736
  H     -284.086    -421.675     209.065

 3  4  5  6  7  8  9  10  11  12  23  26  30  31  33  0
 6-311+G(2d,p)
 ****
 35  36  37  38 0
 6-311+G(2d,p)
 ****
 1  2  13  14  15  16  17  18  19  20  21  22  24  25  27  28  29 0
 3-21G
 ****
 32  34  39  40  41  42  43  44  45  46  47  48  49 0
 3-21G
 ****


