%nproc=1
%NoSave
%Mem=1900MB
#P OB98/GEN NMR

erre ene a

0 1
  C       -3.424      54.535      44.083
  O       -3.492      55.562      45.052
  H       -2.980      53.648      44.544
  H       -2.803      54.837      43.235
  H       -4.430      54.280      43.735
  P       -3.869      57.044      44.558
  C       -4.941      59.097      45.704
  O       -4.746      57.683      45.744
  C       -6.328      59.474      46.234
  O       -7.352      58.869      45.418
  C       -6.599      58.978      47.645
  O       -5.841      59.632      48.642
  C       -8.119      59.011      47.716
  O       -8.644      60.281      48.090
  C       -8.516      58.691      46.253
  N       -9.082      57.355      46.118
  C      -10.400      57.212      46.542
  O      -11.064      58.132      47.025
  N      -10.930      55.956      46.432
  C      -10.267      54.844      45.999
  O      -10.784      53.734      45.963
  C       -8.865      55.051      45.590
  C       -8.346      56.279      45.667
  O       -4.518      57.135      43.208
  O       -2.487      57.842      44.661
  H       -8.501      60.378      49.051
  H       -2.520      58.680      44.141
  H      -11.887      55.834      46.725
  H       -8.309      54.192      45.242
  H       -7.315      56.458      45.371
  H       -9.264      59.412      45.898
  H       -8.502      58.283      48.437
  H       -6.313      57.920      47.695
  H       -6.438      60.563      46.168
  H       -4.856      59.414      44.659
  H       -4.161      59.593      46.289
  P       -5.528      58.987      50.072
  C       -3.768      59.396      51.941
  O       -4.091      59.520      50.560
  O       -5.848      57.535      50.239
  O       -6.538      59.816      51.021
  H       -6.838      59.210      51.725
  H       -2.788      59.790      52.115
  H       -3.792      58.364      52.222
  H       -4.480      59.941      52.524

 6  7  8  9  10  11  12  13  14  15  16  26  31  32  33  34  35 0
 6-311+G(2d,p)
 ****
 36  37 0
 6-311+G(2d,p)
 ****
 1  2  3  4  5  17  18  19  20  21  22  23  24  25 0
 3-21G
 ****
 27  28  29  30  38  39  40  41  42  43  44  45 0
 3-21G
 ****


