%nproc=1
%NoSave
%Mem=1900MB
#P OB98/GEN NMR

erre ene a

0 1
  C     -161.657      21.044     100.904
  O     -161.922      22.082      99.975
  P     -162.646      23.439     100.432
  C     -164.945      22.529     101.133
  O     -164.201      23.202     100.125
  C     -166.435      22.573     100.803
  O     -166.867      23.954     100.829
  C     -166.827      22.056      99.420
  O     -166.997      20.649      99.340
  C     -168.179      22.735      99.238
  O     -169.186      22.020      99.977
  C     -167.938      24.110      99.865
  N     -169.612      27.015      96.002
  C     -170.242      26.133      96.809
  N     -169.723      25.384      97.805
  C     -168.416      25.648      97.959
  C     -167.638      26.523      97.218
  C     -168.291      27.230      96.193
  N     -167.651      28.145      95.387
  N     -166.329      26.509      97.661
  C     -166.326      25.652      98.660
  N     -167.562      25.111      98.884
  O     -162.051      24.679      99.862
  O     -162.586      23.399     102.030
  H     -169.122      21.082      99.713
  H     -162.759      24.289     102.391
  H     -171.308      26.007      96.630
  H     -165.456      25.389      99.243
  H     -168.813      24.485     100.409
  H     -168.507      22.759      98.195
  H     -166.137      22.417      98.647
  H     -166.979      22.035     101.589
  H     -164.773      23.041     102.087
  H     -168.223      28.698      94.770
  H     -166.712      28.425      95.636
  H     -164.592      21.499     101.226
  P     -166.129      19.868      98.234
  C     -167.862      20.637      96.431
  O     -167.136      19.580      97.020
  O     -165.389      18.683      98.750
  O     -165.174      21.017      97.658
  H     -165.624      21.718      97.159
  H     -168.357      20.263      95.531
  H     -167.199      21.456      96.148
  H     -168.625      21.001      97.125
  H     -161.172      20.232     100.403
  H     -162.578      20.702     101.329
  H     -161.021      21.414     101.681

 3  4  5  6  7  8  9  10  11  12  22  25  29  30  31  32 0
 6-311+G(2d,p)
 ****
 33  36  37 0
 6-311+G(2d,p)
 ****
 1  2  13  14  15  16  17  18  19  20  21  23  24  26 0
 3-21G
 ****
 27  28  34  35  38  39  40  41  42  43  44  45  46  47  48 0
 3-21G
 ****


