%nproc=1
%NoSave
%Mem=1900MB
#P OB98/GEN NMR

erre ene a

0 1
  C     -175.506    -895.340     384.875
  O     -176.296    -894.190     385.175
  H     -175.976    -895.840     384.005
  H     -175.501    -896.010     385.723
  H     -174.490    -895.050     384.595
  P     -175.800    -893.190     386.327
  C     -176.813    -894.700     388.165
  O     -175.623    -894.090     387.675
  C     -176.479    -895.760     389.210
  O     -175.426    -895.230     390.081
  C     -177.663    -896.180     390.074
  O     -177.560    -897.570     390.355
  C     -177.464    -895.410     391.373
  O     -178.036    -896.040     392.505
  C     -175.915    -895.350     391.443
  N     -174.788    -893.820     396.134
  C     -175.134    -895.080     395.649
  N     -175.244    -896.070     396.571
  N     -175.374    -895.320     394.399
  C     -175.241    -894.260     393.584
  C     -174.890    -892.950     393.918
  C     -174.620    -892.690     395.328
  O     -174.317    -891.610     395.851
  N     -174.857    -892.140     392.831
  C     -175.222    -892.920     391.832
  N     -175.460    -894.200     392.228
  O     -176.603    -891.950     386.511
  O     -174.274    -892.870     385.917
  H     -177.769    -895.520     393.288
  H     -174.218    -891.990     385.487
  H     -174.612    -893.680     397.096
  H     -175.315    -892.600     390.795
  H     -175.479    -896.230     391.904
  H     -177.875    -894.380     391.280
  H     -175.042    -895.950     397.544
  H     -178.635    -895.920     389.607
  H     -175.480    -897.020     396.226
  H     -176.040    -896.630     388.678
  H     -177.325    -895.160     387.319
  H     -177.477    -893.910     388.595
  P     -178.546    -898.580     389.527
  C     -180.357    -898.850     391.331
  O     -180.043    -898.350     390.016
  O     -178.066    -900.000     389.470
  O     -178.529    -897.930     388.038
  H     -178.645    -898.630     387.385
  H     -181.382    -898.643     391.556
  H     -179.730    -898.372     392.054
  H     -180.192    -899.907     391.359

 6  7  8  9  10  11  12  13  14  15  26  29  33  34 0
 6-311+G(2d,p)
 ****
 36  38  39  40  41 0
 6-311+G(2d,p)
 ****
 1  2  3  4  5  16  17  18  19  20  21  22  23  24  25 0
 3-21G
 ****
 27  28  30  31  32  35  37  42  43  44  45  46  47 0
 3-21G
 ****
 48  49 0
 3-21G
 ****


