%nproc=1
%NoSave
%Mem=1900MB
#P OB98/GEN NMR

erre ene a

0 1
  C     -490.142    -525.300     155.327
  O     -489.082    -525.688     156.177
  P     -487.798    -524.737     156.329
  C     -486.159    -526.665     156.942
  O     -486.796    -525.475     157.347
  C     -485.825    -527.556     158.151
  O     -484.777    -526.904     158.907
  C     -486.979    -527.762     159.128
  O     -486.690    -528.903     159.941
  C     -486.904    -526.504     159.972
  O     -487.570    -526.655     161.221
  C     -485.377    -526.252     160.052
  N     -485.071    -524.810     160.039
  C     -485.508    -524.062     161.128
  O     -486.060    -524.565     162.109
  N     -485.366    -522.703     161.017
  C     -484.887    -522.044     159.920
  O     -485.059    -520.848     159.714
  C     -484.225    -522.890     158.915
  C     -484.364    -524.215     159.002
  O     -488.371    -523.512     157.188
  O     -487.188    -524.290     155.054
  H     -487.190    -527.468     161.644
  H     -488.619    -522.776     156.595
  H     -485.815    -522.155     161.746
  H     -483.703    -522.401     158.103
  H     -483.934    -524.859     158.240
  H     -484.950    -526.680     160.963
  H     -487.394    -525.687     159.433
  H     -487.956    -527.880     158.651
  H     -485.443    -528.518     157.798
  H     -485.248    -526.418     156.384
  H     -486.803    -527.226     156.254
  P     -487.856    -529.980     160.189
  C     -488.121    -529.703     162.728
  O     -487.658    -530.526     161.678
  O     -488.029    -531.013     159.131
  O     -489.162    -529.052     160.331
  H     -489.966    -529.589     160.191
  H     -488.416    -530.332     163.570
  H     -488.990    -529.108     162.417
  H     -487.317    -529.036     163.052
  H     -490.908    -526.047     155.348
  H     -489.776    -525.192     154.327
  H     -490.545    -524.367     155.662

 3  4  5  6  7  8  9  10  11  12  13  23  28  29  30  31  32 0
 6-311+G(2d,p)
 ****
 33  34 0
 6-311+G(2d,p)
 ****
 1  2  14  15  16  17  18  19  20  21  22  24  25  26  27 0
 3-21G
 ****
 35  36  37  38  39  40  41  42  43  44  45 0
 3-21G
 ****


