%nproc=1
%NoSave
%Mem=1900MB
#P OB98/GEN NMR

erre ene a

0 1
  C       89.027      72.664    -427.900
  O       89.528      72.993    -426.621
  H       89.611      71.838    -428.303
  H       89.120      73.522    -428.570
  H       87.978      72.358    -427.829
  P       88.795      74.180    -425.824
  C       89.499      76.601    -425.145
  O       89.843      75.404    -425.846
  C       90.651      77.613    -425.225
  O       91.837      77.029    -424.613
  C       91.017      78.015    -426.661
  O       91.244      79.422    -426.710
  C       92.298      77.248    -426.946
  O       93.105      77.896    -427.926
  C       92.928      77.143    -425.551
  N       93.837      76.000    -425.442
  C       95.159      76.191    -425.899
  O       95.488      77.280    -426.367
  N       96.030      75.137    -425.854
  C       95.620      73.970    -425.453
  N       96.529      72.957    -425.462
  C       94.236      73.712    -425.008
  C       93.410      74.756    -425.021
  O       88.831      73.674    -424.304
  O       87.432      74.527    -426.317
  H       94.011      77.506    -427.873
  H       88.224      74.203    -423.733
  H       93.934      72.723    -424.698
  H       92.372      74.662    -424.712
  H       93.492      78.056    -425.294
  H       92.057      76.251    -427.318
  H       90.239      77.751    -427.382
  H       90.382      78.488    -424.621
  H       97.460      73.168    -425.780
  H       89.289      76.352    -424.102
  H       96.308      72.009    -425.190
  H       88.600      77.034    -425.601
  P       90.622      80.183    -427.983
  C       91.533      81.559    -429.984
  O       91.842      80.726    -428.871
  O       89.983      81.514    -427.348
  O       89.620      79.369    -428.731
  H       89.012      81.396    -427.225
  H       92.438      81.843    -430.479
  H       91.023      82.435    -429.643
  H       90.906      81.024    -430.666

 6  7  8  9  10  11  12  13  14  15  16  26  30  31  32  33  35 0
 6-311+G(2d,p)
 ****
 37  38 0
 6-311+G(2d,p)
 ****
 1  2  3  4  5  17  18  19  20  21  22  23  24  25 0
 3-21G
 ****
 27  28  29  34  36  39  40  41  42  43  44  45  46 0
 3-21G
 ****


