%nproc=1
%NoSave
%Mem=1900MB
#P OB98/GEN NMR

erre ene a

0 1
  C     2057.677     -62.314    1489.028
  O     2057.635     -61.010    1489.601
  P     2057.539     -60.885    1491.189
  C     2060.155     -60.895    1491.560
  O     2058.906     -61.537    1491.771
  C     2060.456     -59.983    1492.741
  O     2060.380     -60.711    1493.992
  C     2061.895     -59.360    1492.729
  O     2061.989     -58.299    1491.803
  C     2062.047     -58.979    1494.185
  O     2061.377     -57.716    1494.458
  C     2061.330     -60.114    1494.925
  N     2062.221     -61.127    1495.465
  C     2062.337     -61.176    1496.860
  O     2061.689     -60.387    1497.600
  N     2063.195     -62.096    1497.379
  C     2064.021     -62.937    1496.629
  O     2064.772     -63.719    1497.156
  C     2063.867     -62.806    1495.195
  C     2063.021     -61.949    1494.647
  O     2056.417     -61.998    1491.507
  O     2057.244     -59.498    1491.661
  H     2056.373     -62.702    1490.834
  H     2061.581     -57.464    1495.372
  H     2063.272     -62.152    1498.359
  H     2064.478     -63.480    1494.543
  H     2062.917     -61.837    1493.602
  H     2060.705     -59.738    1495.766
  H     2063.093     -58.871    1494.495
  H     2062.624     -60.163    1492.489
  H     2059.715     -59.158    1492.783
  H     2060.133     -60.275    1490.640
  H     2060.942     -61.655    1491.465
  P     2063.401     -58.183    1491.010
  C     2062.533     -59.228    1488.770
  O     2063.370     -59.355    1489.865
  O     2064.434     -58.686    1492.124
  O     2063.646     -56.773    1490.471
  H     2064.123     -59.448    1492.604
  H     2062.944     -59.904    1487.998
  H     2062.525     -58.209    1488.383
  H     2061.517     -59.547    1489.014
  H     2057.740     -62.234    1487.963
  H     2056.789     -62.849    1489.293
  H     2058.533     -62.839    1489.398

 3  4  5  6  7  8  9  10  11  12  13  24  28  29  30  31  32 0
 6-311+G(2d,p)
 ****
 33  34 0
 6-311+G(2d,p)
 ****
 1  2  14  15  16  17  18  19  20  21  22  23  25  26  27 0
 3-21G
 ****
 35  36  37  38  39  40  41  42  43  44  45 0
 3-21G
 ****


