%nproc=1
%NoSave
%Mem=1900MB
#P OB98/GEN NMR

erre ene a

0 1
  C      314.306     286.879     -50.809
  O      314.477     285.533     -50.403
  H      313.575     287.355     -50.147
  H      313.918     286.901     -51.828
  H      315.251     287.426     -50.748
  P      315.714     284.736     -51.028
  C      314.640     282.387     -51.241
  O      315.570     283.198     -50.557
  C      314.612     280.980     -50.631
  O      315.941     280.391     -50.739
  C      314.209     280.951     -49.138
  O      313.403     279.808     -48.903
  C      315.546     280.805     -48.422
  O      315.401     280.193     -47.135
  C      316.325     279.966     -49.420
  N      320.383     277.968     -47.159
  C      319.069     277.514     -47.225
  N      318.812     276.348     -46.590
  N      318.108     278.143     -47.869
  C      318.541     279.259     -48.489
  C      319.799     279.827     -48.494
  C      320.840     279.133     -47.760
  O      322.013     279.513     -47.647
  N      319.819     280.992     -49.217
  C      318.569     281.146     -49.648
  N      317.754     280.108     -49.228
  O      316.957     285.271     -50.176
  O      315.928     284.931     -52.497
  H      316.311     279.948     -46.824
  H      317.574     285.756     -50.764
  H      321.073     277.459     -46.651
  H      318.213     281.969     -50.242
  H      316.110     278.886     -49.335
  H      316.010     281.788     -48.293
  H      319.508     275.788     -46.106
  H      313.675     281.854     -48.829
  H      317.871     275.975     -46.650
  H      313.942     280.353     -51.232
  H      314.919     282.314     -52.290
  H      313.639     282.844     -51.172
  P      311.811     280.048     -48.800
  C      311.351     279.170     -46.406
  O      311.202     278.942     -47.784
  O      311.275     279.590     -50.236
  O      311.433     281.460     -48.497
  H      310.999     280.365     -50.748
  H      310.905     278.365     -45.861
  H      310.870     280.089     -46.142
  H      312.392     279.230     -46.165

 6  7  8  9  10  11  12  13  14  15  26  29  33  34 0
 6-311+G(2d,p)
 ****
 36  38  39  40  41 0
 6-311+G(2d,p)
 ****
 1  2  3  4  5  16  17  18  19  20  21  22  23  24  25 0
 3-21G
 ****
 27  28  30  31  32  35  37  42  43  44  45  46  47 0
 3-21G
 ****
 48  49 0
 3-21G
 ****


