%nproc=1
%NoSave
%Mem=1900MB
#P OB98/GEN NMR

erre ene a

0 1
  C       84.697      62.628      26.871
  O       83.519      63.212      26.352
  H       84.737      62.759      27.955
  H       84.689      61.557      26.647
  H       85.579      63.080      26.408
  P       83.319      64.783      26.607
  C       84.831      65.400      24.583
  O       84.625      65.479      25.986
  C       84.026      66.496      23.893
  O       84.233      66.439      22.463
  C       82.521      66.375      24.099
  O       82.096      66.918      25.337
  C       82.009      67.199      22.930
  O       82.148      68.600      23.224
  C       82.981      66.788      21.813
  N       80.412      65.346      17.627
  C       80.751      66.564      18.102
  N       81.455      66.862      19.213
  C       81.828      65.744      19.854
  C       81.562      64.435      19.488
  C       80.811      64.251      18.315
  N       80.435      63.013      17.845
  N       82.092      63.555      20.411
  C       82.682      64.321      21.306
  N       82.522      65.653      21.030
  O       83.542      64.945      28.184
  O       82.027      65.361      26.137
  H       81.680      69.087      22.519
  H       83.225      65.818      28.484
  H       80.409      67.410      17.513
  H       83.224      63.964      22.171
  H       83.185      67.604      21.111
  H       80.952      67.018      22.717
  H       82.181      65.340      23.982
  H       84.395      67.467      24.244
  H       84.498      64.419      24.227
  H       79.775      62.990      17.083
  H       80.599      62.203      18.425
  H       85.897      65.520      24.364
  P       80.523      66.874      25.664
  C       80.199      64.314      25.960
  O       79.991      65.455      25.136
  O       79.910      67.912      24.613
  O       80.172      67.219      27.073
  H       79.125      68.358      24.983
  H       79.794      63.448      25.479
  H       79.712      64.460      26.901
  H       81.248      64.175      26.119

 6  7  8  9  10  11  12  13  14  15  25  28  32  33  34  35 0
 6-311+G(2d,p)
 ****
 36  39  40 0
 6-311+G(2d,p)
 ****
 1  2  3  4  5  16  17  18  19  20  21  22  23  24 0
 3-21G
 ****
 26  27  29  30  31  37  38  41  42  43  44  45  46  47 0
 3-21G
 ****
 48 0
 3-21G
 ****


