%nproc=1
%NoSave
%Mem=1900MB
#P OB98/GEN NMR

erre ene a

0 1
  C       -4.493    -227.266    -204.795
  O       -4.094    -228.460    -205.437
  H       -5.574    -227.295    -204.638
  H       -4.256    -226.402    -205.420
  H       -4.002    -227.164    -203.821
  P       -2.527    -228.765    -205.605
  C       -2.463    -229.865    -203.271
  O       -1.915    -228.869    -204.125
  C       -1.416    -230.939    -202.982
  O       -0.195    -230.332    -202.503
  C       -1.830    -231.940    -201.909
  O       -2.768    -232.873    -202.417
  C       -0.478    -232.531    -201.533
  O       -0.070    -233.523    -202.485
  C        0.436    -231.282    -201.611
  N        0.698    -230.674    -200.306
  C        1.396    -231.455    -199.388
  O        1.752    -232.612    -199.623
  N        1.657    -230.866    -198.176
  C        1.226    -229.632    -197.778
  O        1.443    -229.171    -196.659
  C        0.461    -228.867    -198.773
  C        0.233    -229.414    -199.972
  O       -1.783    -227.857    -206.529
  O       -2.493    -230.285    -206.113
  H        0.902    -233.459    -202.559
  H       -2.352    -230.305    -207.080
  H        2.153    -231.419    -197.495
  H        0.097    -227.884    -198.488
  H       -0.328    -228.863    -200.717
  H        1.400    -231.545    -202.066
  H       -0.484    -233.015    -200.555
  H       -2.239    -231.412    -201.034
  H       -1.188    -231.457    -203.927
  H       -3.328    -230.322    -203.772
  H       -2.797    -229.389    -202.342
  P       -3.867    -233.534    -201.459
  C       -5.693    -231.799    -201.952
  O       -4.842    -232.354    -200.957
  O       -3.323    -234.401    -200.372
  O       -4.797    -234.373    -202.458
  H       -4.612    -235.328    -202.362
  H       -6.295    -231.029    -201.517
  H       -6.326    -232.566    -202.348
  H       -5.098    -231.385    -202.739

 6  7  8  9  10  11  12  13  14  15  16  26  31  32  33  34  35 0
 6-311+G(2d,p)
 ****
 36  37 0
 6-311+G(2d,p)
 ****
 1  2  3  4  5  17  18  19  20  21  22  23  24  25 0
 3-21G
 ****
 27  28  29  30  38  39  40  41  42  43  44  45 0
 3-21G
 ****


