%nproc=1
%NoSave
%Mem=1900MB
#P OB98/GEN NMR

erre ene a

0 1
  C      199.328     121.882    -138.382
  O      199.031     120.669    -137.680
  P      197.526     120.459    -137.163
  C      197.796     120.989    -134.637
  O      197.277     121.409    -135.892
  C      198.317     122.185    -133.822
  O      198.848     121.737    -132.537
  C      199.440     122.958    -134.519
  O      199.362     124.328    -134.107
  C      200.689     122.340    -133.926
  O      201.829     123.182    -134.100
  C      200.237     122.136    -132.482
  N      204.707     121.216    -130.319
  C      204.246     122.347    -130.971
  N      205.095     123.402    -131.025
  N      203.063     122.440    -131.522
  C      202.310     121.318    -131.353
  C      202.661     120.140    -130.746
  C      203.974     120.042    -130.162
  O      204.441     119.062    -129.582
  N      201.633     119.224    -130.800
  C      200.671     119.850    -131.459
  N      201.027     121.139    -131.789
  O      197.565     118.987    -136.530
  O      196.498     120.553    -138.245
  H      201.989     123.263    -135.067
  H      197.081     118.367    -137.104
  H      205.631     121.200    -129.923
  H      199.718     119.430    -131.720
  H      200.300     123.057    -131.889
  H      200.893     121.376    -134.412
  H      205.998     123.412    -130.579
  H      199.418     122.909    -135.615
  H      204.766     124.256    -131.458
  H      197.478     122.853    -133.610
  H      198.603     120.267    -134.782
  H      197.011     120.447    -134.095
  P      198.567     125.336    -135.070
  C      200.693     126.593    -135.887
  O      199.596     125.757    -136.225
  O      198.427     126.666    -134.187
  O      197.245     124.829    -135.541
  H      197.657     127.184    -134.485
  H      201.601     125.984    -135.828
  H      200.535     127.106    -134.932
  H      200.814     127.342    -136.671
  H      200.360     121.887    -138.665
  H      199.129     122.720    -137.747
  H      198.717     121.946    -139.258

 3  4  5  6  7  8  9  10  11  12  23  26  30  31 0
 6-311+G(2d,p)
 ****
 33  35  36  37  38 0
 6-311+G(2d,p)
 ****
 1  2  13  14  15  16  17  18  19  20  21  22  24  25 0
 3-21G
 ****
 27  28  29  32  34  39  40  41  42  43  44  45  46  47  48  49 0
 3-21G
 ****


