%nproc=1
%NoSave
%Mem=1900MB
#P OB98/GEN NMR

erre ene a

0 1
  C      326.234     328.384    -408.439
  O      326.442     328.134    -407.067
  H      327.097     328.940    -408.827
  H      325.341     328.990    -408.592
  H      326.147     327.444    -408.995
  P      325.244     327.499    -406.201
  C      326.859     326.169    -404.705
  O      325.893     327.220    -404.747
  C      327.006     325.610    -403.286
  O      327.732     326.556    -402.469
  C      325.672     325.314    -402.585
  O      325.732     324.020    -401.972
  C      325.573     326.398    -401.525
  O      324.740     326.014    -400.432
  C      327.050     326.614    -401.181
  N      327.305     327.876    -400.501
  C      327.675     327.784    -399.146
  O      327.756     326.685    -398.601
  N      327.930     328.943    -398.457
  C      327.775     330.095    -399.034
  N      328.033     331.212    -398.290
  C      327.338     330.237    -400.439
  C      327.126     329.101    -401.114
  O      324.576     326.320    -406.826
  O      324.254     328.726    -405.919
  H      325.122     325.201    -400.024
  H      323.362     328.380    -405.678
  H      327.207     331.220    -400.878
  H      326.813     329.108    -402.155
  H      327.437     325.798    -400.563
  H      325.157     327.311    -401.965
  H      324.824     325.337    -403.262
  H      327.635     324.712    -403.334
  H      328.327     331.059    -397.328
  H      327.816     326.564    -405.065
  H      327.935     332.153    -398.639
  H      326.522     325.370    -405.372
  P      324.469     323.057    -402.246
  C      325.863     321.134    -403.303
  O      325.005     321.535    -402.237
  O      324.125     323.336    -403.789
  O      323.302     323.315    -401.359
  H      323.373     323.944    -403.858
  H      326.140     320.109    -403.172
  H      326.742     321.744    -403.302
  H      325.351     321.248    -404.235

 6  7  8  9  10  11  12  13  14  15  16  26  30  31  32  33  35 0
 6-311+G(2d,p)
 ****
 37  38 0
 6-311+G(2d,p)
 ****
 1  2  3  4  5  17  18  19  20  21  22  23  24  25 0
 3-21G
 ****
 27  28  29  34  36  39  40  41  42  43  44  45  46 0
 3-21G
 ****


