%nproc=1
%NoSave
%Mem=1900MB
#P OB98/GEN NMR

erre ene a

0 1
  C      -69.732     -86.473     -32.212
  O      -70.378     -87.269     -33.210
  P      -71.908     -86.932     -33.552
  C      -71.850     -87.161     -36.136
  O      -72.313     -87.694     -34.905
  C      -70.373     -87.506     -36.376
  O      -70.180     -88.947     -36.428
  C      -69.817     -86.939     -37.685
  O      -68.421     -86.678     -37.506
  C      -69.973     -88.105     -38.643
  O      -69.142     -87.959     -39.793
  C      -69.621     -89.268     -37.718
  N      -69.765     -92.395     -41.672
  C      -69.168     -91.156     -41.536
  N      -68.478     -90.701     -42.603
  N      -69.240     -90.430     -40.451
  C      -69.934     -91.032     -39.454
  C      -70.576     -92.248     -39.468
  C      -70.508     -93.029     -40.683
  O      -71.029     -94.125     -40.865
  N      -71.193     -92.501     -38.269
  C      -70.930     -91.436     -37.537
  N      -70.140     -90.534     -38.198
  O      -71.845     -85.394     -33.997
  O      -72.841     -87.124     -32.403
  H      -69.387     -87.112     -40.225
  H      -72.243     -84.836     -33.306
  H      -69.686     -92.906     -42.534
  H      -71.284     -91.267     -36.531
  H      -68.537     -89.392     -37.600
  H      -71.015     -88.173     -38.980
  H      -68.340     -91.231     -43.450
  H      -70.313     -86.031     -38.040
  H      -67.996     -89.814     -42.517
  H      -69.785     -87.129     -35.531
  H      -71.975     -86.075     -36.148
  H      -72.483     -87.539     -36.946
  P      -67.953     -85.147     -37.583
  C      -66.334     -84.640     -35.619
  O      -66.483     -85.097     -36.949
  O      -68.861     -84.419     -36.485
  O      -68.092     -84.520     -38.931
  H      -68.959     -83.475     -36.699
  H      -66.170     -85.498     -34.962
  H      -67.210     -84.082     -35.275
  H      -65.460     -83.984     -35.570
  H      -68.723     -86.807     -32.088
  H      -70.256     -86.570     -31.284
  H      -69.734     -85.448     -32.518

 3  4  5  6  7  8  9  10  11  12  23  26  30  31 0
 6-311+G(2d,p)
 ****
 33  35  36  37  38 0
 6-311+G(2d,p)
 ****
 1  2  13  14  15  16  17  18  19  20  21  22  24  25 0
 3-21G
 ****
 27  28  29  32  34  39  40  41  42  43  44  45  46  47  48  49 0
 3-21G
 ****


