%nproc=1
%NoSave
%Mem=1900MB
#P OB98/GEN NMR

erre ene a

0 1
  C     -432.437    -677.495    -186.116
  O     -432.629    -678.603    -185.253
  P     -432.699    -678.415    -183.670
  C     -434.667    -679.990    -183.189
  O     -433.274    -679.775    -183.031
  C     -435.138    -681.232    -182.399
  O     -434.520    -682.413    -182.962
  C     -434.787    -681.173    -180.910
  O     -435.896    -681.754    -180.200
  C     -433.573    -682.071    -180.811
  O     -433.362    -682.581    -179.490
  C     -433.891    -683.119    -181.870
  N     -432.714    -683.853    -182.312
  C     -432.169    -684.789    -181.427
  O     -432.605    -684.880    -180.277
  N     -431.143    -685.581    -181.863
  C     -430.592    -685.350    -183.008
  N     -429.626    -686.215    -183.436
  C     -430.979    -684.211    -183.874
  C     -432.053    -683.529    -183.484
  O     -433.390    -677.179    -183.209
  O     -431.159    -678.421    -183.193
  H     -430.988    -677.613    -182.660
  H     -434.119    -683.153    -179.251
  H     -430.402    -683.962    -184.750
  H     -432.437    -682.693    -184.058
  H     -434.624    -683.843    -181.488
  H     -432.670    -681.506    -181.098
  H     -434.617    -680.168    -180.542
  H     -436.215    -681.324    -182.523
  H     -429.419    -686.999    -182.840
  H     -434.865    -680.156    -184.254
  H     -429.364    -686.282    -184.421
  H     -435.223    -679.105    -182.887
  P     -436.476    -680.963    -178.927
  C     -438.930    -680.451    -179.656
  O     -438.061    -681.242    -178.854
  O     -436.443    -679.434    -179.465
  O     -435.703    -681.053    -177.651
  H     -436.391    -678.836    -178.688
  H     -439.957    -680.748    -179.424
  H     -438.734    -680.639    -180.704
  H     -438.795    -679.406    -179.437
  H     -432.420    -677.832    -187.131
  H     -431.508    -677.018    -185.883
  H     -433.238    -676.798    -185.985

 3  4  5  6  7  8  9  10  11  12  13  24  27  28  29  30  32 0
 6-311+G(2d,p)
 ****
 34  35 0
 6-311+G(2d,p)
 ****
 1  2  14  15  16  17  18  19  20  21  22  23  25  26 0
 3-21G
 ****
 31  33  36  37  38  39  40  41  42  43  44  45  46 0
 3-21G
 ****


