%nproc=1
%NoSave
%Mem=1900MB
#P OB98/GEN NMR

erre ene a

0 1
  C     -543.554      21.940      51.780
  O     -542.196      22.272      51.974
  P     -541.394      22.909      50.736
  C     -540.436      20.642      49.869
  O     -541.265      21.768      49.612
  C     -539.756      20.200      48.567
  O     -540.741      19.777      47.599
  C     -538.966      21.315      47.889
  O     -537.706      21.516      48.504
  C     -538.866      20.791      46.459
  O     -537.770      19.861      46.328
  C     -540.222      20.071      46.290
  N     -541.172      20.838      45.483
  C     -540.846      20.991      44.138
  O     -539.815      20.529      43.640
  N     -541.727      21.720      43.392
  C     -542.849      22.349      43.846
  O     -543.570      23.036      43.144
  C     -543.125      22.182      45.291
  C     -542.283      21.451      46.030
  O     -539.900      23.070      51.287
  O     -541.952      24.203      50.243
  H     -536.958      20.372      46.523
  H     -539.497      23.885      50.910
  H     -541.525      21.816      42.405
  H     -544.001      22.662      45.690
  H     -542.465      21.323      47.091
  H     -540.072      19.090      45.802
  H     -538.693      21.592      45.731
  H     -539.558      22.242      47.884
  H     -539.098      19.348      48.788
  H     -541.042      19.824      50.261
  H     -539.682      20.910      50.618
  P     -537.341      23.016      48.949
  C     -535.740      23.457      46.928
  O     -536.952      23.770      47.588
  O     -535.954      22.771      49.712
  O     -538.408      23.655      49.778
  H     -535.452      22.036      49.322
  H     -535.492      22.393      47.021
  H     -534.932      24.061      47.357
  H     -535.841      23.700      45.869
  H     -543.953      21.529      52.684
  H     -543.636      21.219      50.994
  H     -544.102      22.820      51.516

 3  4  5  6  7  8  9  10  11  12  13  23  28  29  30  31  32 0
 6-311+G(2d,p)
 ****
 33  34 0
 6-311+G(2d,p)
 ****
 1  2  14  15  16  17  18  19  20  21  22  24  25  26 0
 3-21G
 ****
 27  35  36  37  38  39  40  41  42  43  44  45 0
 3-21G
 ****


