%nproc=1
%NoSave
%Mem=1900MB
#P OB98/GEN NMR

erre ene a

0 1
  C       62.043     231.527    -160.649
  O       61.461     231.290    -159.363
  P       62.375     231.579    -158.076
  C       63.459     229.233    -158.393
  O       63.655     230.619    -158.132
  C       64.807     228.504    -158.408
  O       65.688     229.059    -159.402
  C       65.562     228.621    -157.097
  O       65.029     227.734    -156.132
  C       66.988     228.284    -157.522
  O       67.253     226.876    -157.423
  C       67.032     228.752    -158.994
  N       67.917     229.889    -159.194
  C       69.256     229.582    -159.455
  O       69.630     228.407    -159.482
  N       70.139     230.614    -159.653
  C       69.724     231.841    -159.571
  N       70.649     232.820    -159.771
  C       68.327     232.206    -159.272
  C       67.484     231.191    -159.093
  O       61.511     230.975    -156.871
  O       62.676     233.028    -157.864
  H       68.087     226.729    -157.916
  H       61.654     231.493    -156.059
  H       68.032     233.244    -159.207
  H       66.437     231.365    -158.869
  H       67.378     227.938    -159.641
  H       67.723     228.787    -156.883
  H       65.520     229.654    -156.729
  H       64.627     227.446    -158.645
  H       71.599     232.532    -159.973
  H       62.952     229.098    -159.351
  H       70.437     233.807    -159.724
  H       62.796     228.819    -157.626
  P       63.902     228.295    -155.143
  C       65.269     227.343    -153.189
  O       64.646     228.489    -153.735
  O       63.014     226.988    -154.869
  O       63.076     229.441    -155.624
  H       62.228     227.220    -154.346
  H       65.904     227.653    -152.355
  H       65.892     226.851    -153.938
  H       64.512     226.649    -152.817
  H       61.329     231.295    -161.412
  H       62.907     230.908    -160.769
  H       62.328     232.555    -160.728

 3  4  5  6  7  8  9  10  11  12  13  21  23  27  28  29  30  32 0
 6-311+G(2d,p)
 ****
 34  35 0
 6-311+G(2d,p)
 ****
 1  2  14  15  16  17  18  19  20  22  24  25  26 0
 3-21G
 ****
 31  33  36  37  38  39  40  41  42  43  44  45  46 0
 3-21G
 ****


