%nproc=1
%NoSave
%Mem=1900MB
#P OB98/GEN NMR

erre ene a

0 1
  C       12.526       3.854      -8.258
  O       11.966       4.369      -9.472
  P       10.664       3.724     -10.152
  C       11.347       4.303     -12.566
  O       10.377       4.480     -11.538
  C       11.582       5.597     -13.352
  O       12.366       6.528     -12.582
  C       12.325       5.410     -14.671
  O       11.451       4.925     -15.672
  C       12.862       6.818     -14.912
  O       11.840       7.655     -15.480
  C       13.198       7.277     -13.488
  N       17.748       9.595     -13.227
  C       16.523      10.047     -13.570
  N       15.359       9.366     -13.620
  C       15.541       8.090     -13.240
  C       16.731       7.486     -12.867
  C       17.879       8.296     -12.869
  N       19.128       7.830     -12.533
  N       16.531       6.155     -12.568
  C       15.238       5.964     -12.741
  N       14.598       7.102     -13.146
  O        9.479       3.638      -9.246
  O       11.128       2.263     -10.615
  H       12.140       8.578     -15.397
  H       10.361       1.662     -10.623
  H       16.471      11.098     -13.844
  H       14.722       5.025     -12.583
  H       12.954       8.334     -13.335
  H       13.716       6.834     -15.596
  H       13.165       4.721     -14.533
  H       10.604       6.063     -13.528
  H       10.991       3.521     -13.246
  H       19.907       8.466     -12.592
  H       19.242       6.851     -12.311
  H       12.285       3.971     -12.108
  P       11.999       3.937     -16.807
  C       10.798       5.016     -18.800
  O       10.888       3.880     -17.961
  O       12.486       2.611     -16.327
  O       13.179       4.773     -17.498
  H       13.851       4.156     -17.843
  H       10.230       5.799     -18.291
  H       10.273       4.734     -19.716
  H       11.791       5.391     -19.060
  H       13.385       4.433      -7.988
  H       12.814       2.834      -8.403
  H       11.797       3.911      -7.477

 3  4  5  6  7  8  9  10  11  12  22  25  29  30  31  32 0
 6-311+G(2d,p)
 ****
 33  36  37 0
 6-311+G(2d,p)
 ****
 1  2  13  14  15  16  17  18  19  20  21  23  24  26 0
 3-21G
 ****
 27  28  34  35  38  39  40  41  42  43  44  45  46  47  48 0
 3-21G
 ****


