%nproc=1
%NoSave
%Mem=1900MB
#P OB98/GEN NMR

erre ene a

0 1
  C      571.007      18.166     258.030
  O      572.195      18.823     257.623
  H      570.670      18.613     258.968
  H      571.204      17.104     258.198
  H      570.220      18.285     257.281
  P      572.806      18.486     256.180
  C      571.520      20.450     255.103
  O      571.764      19.051     255.092
  C      572.271      21.144     253.959
  O      571.768      20.623     252.685
  C      572.094      22.674     253.918
  O      573.295      23.219     253.355
  C      570.925      22.806     252.960
  O      570.724      24.135     252.533
  C      571.340      21.770     251.917
  N      570.302      21.386     250.967
  C      570.094      22.210     249.868
  O      570.719      23.245     249.625
  N      569.100      21.817     249.003
  C      568.324      20.696     249.126
  O      567.470      20.379     248.310
  C      568.592      19.869     250.313
  C      569.552      20.234     251.160
  O      573.231      17.072     255.970
  O      574.042      19.502     256.055
  H      574.874      19.025     256.230
  H      571.547      24.460     252.116
  H      568.930      22.405     248.203
  H      567.984      18.972     250.444
  H      569.774      19.640     252.044
  H      572.219      22.123     251.358
  H      569.998      22.507     253.466
  H      571.927      23.112     254.910
  H      573.331      20.867     254.013
  H      571.859      20.858     256.062
  H      570.445      20.628     255.007
  P      574.630      23.492     254.199
  C      576.250      21.905     252.922
  O      575.537      22.164     254.137
  O      574.391      23.981     255.591
  O      575.477      24.558     253.352
  H      576.052      25.073     253.949
  H      576.807      20.997     253.022
  H      576.921      22.715     252.723
  H      575.555      21.810     252.114

 6  7  8  9  10  11  12  13  14  15  16  27  31  32  33  34  35 0
 6-311+G(2d,p)
 ****
 36  37 0
 6-311+G(2d,p)
 ****
 1  2  3  4  5  17  18  19  20  21  22  23  24  25 0
 3-21G
 ****
 26  28  29  30  38  39  40  41  42  43  44  45 0
 3-21G
 ****


