%nproc=1
%NoSave
%Mem=1900MB
#P OB98/GEN NMR

erre ene a

0 1
  C      160.675      28.508    -897.780
  O      159.502      27.714    -897.650
  P      158.092      28.275    -898.190
  C      157.063      28.061    -895.850
  O      157.311      28.929    -896.950
  C      156.523      28.862    -894.680
  O      157.585      29.510    -893.950
  C      155.556      29.979    -895.070
  O      154.283      29.454    -895.400
  C      155.580      30.855    -893.820
  O      154.700      30.328    -892.820
  C      157.053      30.717    -893.370
  N      158.208      35.556    -892.270
  C      157.246      34.744    -891.810
  N      156.981      33.473    -892.180
  C      157.816      33.078    -893.160
  C      158.819      33.818    -893.760
  C      159.038      35.116    -893.260
  N      160.045      35.939    -893.680
  N      159.445      33.081    -894.740
  C      158.806      31.917    -894.740
  N      157.873      31.850    -893.750
  O      157.306      27.314    -899.010
  O      158.509      29.551    -899.080
  H      153.839      30.142    -893.260
  H      158.230      29.411    -900.000
  H      156.620      35.155    -891.020
  H      159.018      31.098    -895.420
  H      157.130      30.602    -892.280
  H      155.275      31.880    -894.010
  H      155.971      30.552    -895.910
  H      156.026      28.162    -893.990
  H      158.005      27.582    -895.570
  H      160.196      36.784    -893.160
  H      160.841      35.523    -894.180
  H      156.346      27.288    -896.160
  P      153.129      30.440    -895.920
  C      151.522      30.000    -893.970
  O      152.332      30.942    -894.620
  O      152.274      29.913    -897.040
  O      153.936      31.748    -896.390
  H      153.485      32.188    -897.140
  H      150.595      29.853    -894.530
  H      151.294      30.354    -892.960
  H      152.051      29.034    -893.880
  H      161.510      27.980    -897.370
  H      160.542      29.430    -897.253
  H      160.855      28.712    -898.815

 3  4  5  6  7  8  9  10  11  12  22  25  29  30  31  32 0
 6-311+G(2d,p)
 ****
 33  36  37 0
 6-311+G(2d,p)
 ****
 1  2  13  14  15  16  17  18  19  20  21  23  24  26 0
 3-21G
 ****
 27  28  34  35  38  39  40  41  42  43  44  45  46  47  48 0
 3-21G
 ****


