%nproc=1
%NoSave
%Mem=1900MB
#P OB98/GEN NMR

erre ene a

0 1
  C       44.494     233.733      -2.447
  O       44.931     233.572      -1.108
  P       44.966     232.083      -0.509
  C       43.107     232.734       1.192
  O       43.536     231.837       0.174
  C       41.620     233.041       1.034
  O       41.243     233.040      -0.358
  C       40.700     232.024       1.698
  O       40.561     232.249       3.091
  C       39.388     232.305       0.982
  O       38.750     233.460       1.557
  C       39.861     232.610      -0.447
  N       36.901     228.773      -1.910
  C       36.604     229.871      -1.124
  N       35.356     229.920      -0.610
  N       37.447     230.836      -0.870
  C       38.664     230.648      -1.446
  C       39.076     229.604      -2.247
  C       38.131     228.536      -2.510
  O       38.352     227.517      -3.153
  N       40.375     229.767      -2.650
  C       40.748     230.906      -2.100
  N       39.761     231.457      -1.325
  O       45.954     232.211       0.745
  O       45.410     231.033      -1.475
  H       38.680     233.293       2.516
  H       46.264     231.325       1.016
  H       36.217     228.054      -2.070
  H       41.725     231.360      -2.222
  H       39.293     233.430      -0.898
  H       38.677     231.477       1.055
  H       34.678     229.179      -0.716
  H       41.019     230.995       1.483
  H       35.131     230.680       0.021
  H       41.437     234.047       1.434
  H       43.682     233.659       1.119
  H       43.298     232.284       2.173
  P       41.283     231.201       4.071
  C       38.979     230.185       4.710
  O       40.275     229.961       4.183
  O       41.185     231.911       5.501
  O       42.689     230.872       3.696
  H       41.905     231.612       6.080
  H       38.349     229.318       4.472
  H       38.524     231.078       4.279
  H       39.034     230.289       5.800
  H       44.522     234.770      -2.709
  H       43.492     233.368      -2.542
  H       45.137     233.182      -3.101

 3  4  5  6  7  8  9  10  11  12  23  26  30  31 0
 6-311+G(2d,p)
 ****
 33  35  36  37  38 0
 6-311+G(2d,p)
 ****
 1  2  13  14  15  16  17  18  19  20  21  22  24  25 0
 3-21G
 ****
 27  28  29  32  34  39  40  41  42  43  44  45  46  47  48  49 0
 3-21G
 ****


