%nproc=1
%NoSave
%Mem=1900MB
#P OB98/GEN NMR

erre ene a

0 1
  C     -232.938     323.210     -25.392
  O     -231.869     323.786     -24.661
  P     -230.914     322.893     -23.726
  C     -229.474     322.275     -25.783
  O     -230.261     321.803     -24.705
  C     -228.012     321.870     -25.591
  O     -227.264     322.247     -26.778
  C     -227.326     322.524     -24.385
  O     -226.404     321.569     -23.849
  C     -226.586     323.690     -25.008
  O     -225.509     324.148     -24.205
  C     -226.169     323.082     -26.352
  N     -225.862     324.096     -27.354
  C     -224.549     324.565     -27.422
  O     -223.689     324.154     -26.644
  N     -224.235     325.500     -28.376
  C     -225.165     325.988     -29.137
  N     -224.792     326.866     -30.106
  C     -226.583     325.597     -29.025
  C     -226.850     324.644     -28.140
  O     -231.575     322.328     -22.516
  O     -229.671     323.843     -23.410
  H     -224.780     323.501     -24.273
  H     -229.829     324.442     -22.639
  H     -227.327     326.052     -29.664
  H     -227.858     324.278     -28.007
  H     -225.306     322.422     -26.216
  H     -227.277     324.528     -25.151
  H     -228.035     322.820     -23.605
  H     -227.964     320.776     -25.511
  H     -223.795     326.974     -30.263
  H     -229.536     323.367     -25.806
  H     -225.376     327.028     -30.918
  H     -229.870     321.887     -26.728
  P     -225.942     321.733     -22.320
  C     -227.918     320.330     -21.393
  O     -227.235     321.565     -21.389
  O     -225.673     323.314     -22.232
  O     -224.715     320.986     -21.913
  H     -225.026     323.486     -21.522
  H     -228.762     320.395     -20.700
  H     -227.257     319.525     -21.060
  H     -228.301     320.107     -22.393
  H     -233.444     323.973     -25.945
  H     -233.624     322.746     -24.715
  H     -232.553     322.475     -26.068

 3  4  5  6  7  8  9  10  11  12  13  23  27  28  29  30  32 0
 6-311+G(2d,p)
 ****
 34  35 0
 6-311+G(2d,p)
 ****
 1  2  14  15  16  17  18  19  20  21  22  24  25  26 0
 3-21G
 ****
 31  33  36  37  38  39  40  41  42  43  44  45  46 0
 3-21G
 ****


