%nproc=1
%NoSave
%Mem=1900MB
#P OB98/GEN NMR

erre ene a

0 1
  C      -59.859    -692.306      38.395
  O      -59.452    -691.414      39.419
  H      -60.947    -692.404      38.436
  H      -59.417    -693.296      38.553
  H      -59.579    -691.918      37.413
  P      -57.887    -691.104      39.579
  C      -55.820    -692.593      40.074
  O      -57.239    -692.523      39.959
  C      -55.428    -693.600      41.151
  O      -56.062    -694.880      40.933
  C      -53.938    -693.915      41.217
  O      -53.158    -692.876      41.777
  C      -53.977    -695.155      42.100
  O      -54.201    -694.765      43.467
  C      -55.198    -695.895      41.519
  N      -54.830    -696.891      40.510
  C      -54.294    -698.096      40.990
  O      -54.144    -698.280      42.194
  N      -53.907    -699.061      40.080
  C      -54.024    -698.826      38.809
  N      -53.617    -699.806      37.953
  C      -54.563    -697.562      38.264
  C      -54.942    -696.652      39.161
  O      -57.533    -689.968      40.492
  O      -57.363    -690.901      38.078
  H      -53.512    -694.119      43.695
  H      -56.394    -690.695      38.122
  H      -54.614    -697.411      37.193
  H      -55.347    -695.703      38.833
  H      -55.774    -696.388      42.315
  H      -53.052    -695.728      42.076
  H      -53.555    -694.204      40.227
  H      -55.804    -693.214      42.114
  H      -53.251    -700.658      38.359
  H      -55.452    -691.593      40.313
  H      -53.602    -699.687      36.950
  H      -55.389    -692.913      39.120
  P      -51.746    -692.559      41.065
  C      -49.397    -693.698      41.095
  O      -50.713    -693.665      41.609
  O      -51.275    -691.206      41.778
  O      -51.801    -692.444      39.573
  H      -51.489    -690.435      41.215
  H      -48.851    -694.490      41.564
  H      -48.913    -692.764      41.293
  H      -49.431    -693.865      40.039

 6  7  8  9  10  11  12  13  14  15  16  26  30  31  32  33  35 0
 6-311+G(2d,p)
 ****
 37  38 0
 6-311+G(2d,p)
 ****
 1  2  3  4  5  17  18  19  20  21  22  23  24  25 0
 3-21G
 ****
 27  28  29  34  36  39  40  41  42  43  44  45  46 0
 3-21G
 ****


