%nproc=1
%NoSave
%Mem=1900MB
#P OB98/GEN NMR

erre ene a

0 1
  C      574.389     544.689     526.572
  O      573.166     543.972     526.549
  P      571.807     544.832     526.571
  C      569.821     544.965     528.267
  O      571.220     544.715     528.073
  C      569.223     543.965     529.247
  O      569.083     542.666     528.597
  C      570.035     543.777     530.527
  O      569.128     543.611     531.621
  C      570.761     542.480     530.306
  O      571.131     541.835     531.526
  C      569.733     541.706     529.449
  N      570.349     540.626     528.670
  C      570.286     539.338     529.200
  O      569.807     539.155     530.331
  N      570.817     538.289     528.497
  C      571.460     538.535     527.379
  N      571.954     537.458     526.704
  C      571.637     539.894     526.830
  C      571.051     540.859     527.514
  O      570.802     543.940     525.708
  O      571.938     546.217     526.036
  H      571.503     540.951     531.306
  H      570.167     544.496     525.228
  H      572.213     540.038     525.927
  H      571.103     541.899     527.190
  H      568.966     541.240     530.107
  H      571.680     542.639     529.719
  H      570.705     544.619     530.736
  H      568.198     544.294     529.497
  H      571.828     536.541     527.110
  H      569.320     544.851     527.304
  H      572.468     537.555     525.837
  H      569.687     545.981     528.605
  P      569.713     543.748     533.110
  C      569.977     541.904     534.889
  O      570.152     542.274     533.527
  O      568.353     543.925     533.966
  O      570.663     544.873     533.395
  H      568.570     544.083     534.899
  H      570.192     540.847     534.997
  H      568.929     542.097     535.198
  H      570.652     542.485     535.517
  H      575.207     544.000     526.554
  H      574.440     545.279     527.463
  H      574.443     545.329     525.716

 3  4  5  6  7  8  9  10  11  12  13  21  23  27  28  29  30  32 0
 6-311+G(2d,p)
 ****
 34  35 0
 6-311+G(2d,p)
 ****
 1  2  14  15  16  17  18  19  20  22  24  25  26 0
 3-21G
 ****
 31  33  36  37  38  39  40  41  42  43  44  45  46 0
 3-21G
 ****


