%nproc=1
%NoSave
%Mem=1900MB
#P OB98/GEN NMR

erre ene a

0 1
  C      -21.559     182.349    -504.417
  O      -22.504     181.352    -504.757
  H      -20.557     181.915    -504.478
  H      -21.727     182.704    -503.397
  H      -21.616     183.185    -505.119
  P      -24.057     181.746    -504.740
  C      -24.395     180.488    -502.505
  O      -24.500     181.727    -503.196
  C      -24.881     180.652    -501.059
  O      -24.089     181.638    -500.374
  C      -26.336     181.099    -500.946
  O      -27.212     179.992    -501.110
  C      -26.337     181.662    -499.535
  O      -26.370     180.584    -498.581
  C      -24.974     182.374    -499.486
  N      -25.797     187.169    -498.043
  C      -25.933     185.990    -497.324
  N      -26.394     186.105    -496.067
  N      -25.660     184.806    -497.821
  C      -25.275     184.846    -499.120
  C      -25.126     185.948    -499.932
  C      -25.374     187.257    -499.363
  O      -25.255     188.319    -499.955
  N      -24.785     185.583    -501.214
  C      -24.697     184.265    -501.162
  N      -25.003     183.765    -499.916
  O      -24.957     180.942    -505.634
  O      -24.069     183.299    -505.115
  H      -27.177     180.068    -498.761
  H      -24.181     183.432    -506.072
  H      -26.044     188.040    -497.614
  H      -24.418     183.627    -501.992
  H      -24.526     182.354    -498.483
  H      -27.196     182.300    -499.328
  H      -26.879     186.933    -495.747
  H      -26.571     181.909    -501.646
  H      -26.546     185.250    -495.542
  H      -24.723     179.691    -500.548
  H      -23.338     180.188    -502.526
  H      -24.993     179.722    -503.006
  P      -28.718     180.197    -501.630
  C      -29.337     180.407    -499.128
  O      -29.471     180.959    -500.436
  O      -29.392     178.955    -502.107
  O      -28.603     181.342    -502.748
  H      -28.420     180.987    -503.653
  H      -29.884     181.006    -498.430
  H      -28.303     180.391    -498.852
  H      -29.723     179.409    -499.121

 6  7  8  9  10  11  12  13  14  15  26  29  33  34 0
 6-311+G(2d,p)
 ****
 36  38  39  40  41 0
 6-311+G(2d,p)
 ****
 1  2  3  4  5  16  17  18  19  20  21  22  23  24  25 0
 3-21G
 ****
 27  28  30  31  32  35  37  42  43  44  45  46  47 0
 3-21G
 ****
 48  49 0
 3-21G
 ****


