%nproc=1
%NoSave
%Mem=1900MB
#P OB98/GEN NMR

erre ene a

0 1
  C     -947.792     189.848     556.817
  O     -947.757     189.671     558.240
  P     -948.964     188.877     558.928
  C     -947.763     187.154     560.473
  O     -948.451     187.390     559.250
  C     -946.274     186.918     560.208
  O     -945.655     188.061     559.571
  C     -945.462     186.659     561.470
  O     -945.554     185.300     561.876
  C     -944.057     186.960     560.978
  O     -943.540     185.833     560.244
  C     -944.292     188.147     560.040
  N     -940.984     190.975     562.623
  C     -940.854     189.704     562.106
  N     -939.661     189.093     562.298
  N     -941.807     189.081     561.457
  C     -942.930     189.818     561.324
  C     -943.186     191.082     561.797
  C     -942.130     191.756     562.522
  O     -942.198     192.874     563.020
  N     -944.448     191.493     561.473
  C     -944.957     190.482     560.789
  N     -944.081     189.432     560.691
  O     -949.973     188.647     557.711
  O     -949.612     189.601     560.063
  H     -942.629     186.067     559.980
  H     -950.888     188.576     558.055
  H     -940.226     191.406     563.116
  H     -945.948     190.467     560.351
  H     -943.637     188.127     559.162
  H     -943.358     187.144     561.801
  H     -938.870     189.536     562.740
  H     -945.744     187.351     562.270
  H     -939.535     188.175     561.897
  H     -946.184     186.052     559.534
  H     -948.192     186.293     560.989
  H     -947.922     188.010     561.140
  P     -946.828     184.857     562.741
  C     -947.559     183.196     560.878
  O     -947.899     184.304     561.686
  O     -947.439     186.257     563.214
  O     -946.527     183.966     563.894
  H     -947.867     186.155     564.087
  H     -948.447     182.856     560.354
  H     -947.177     182.372     561.489
  H     -946.801     183.491     560.142
  H     -946.926     190.393     556.504
  H     -948.673     190.392     556.547
  H     -947.804     188.891     556.339

 3  4  5  6  7  8  9  10  11  12  23  26  30  31 0
 6-311+G(2d,p)
 ****
 33  35  36  37  38 0
 6-311+G(2d,p)
 ****
 1  2  13  14  15  16  17  18  19  20  21  22  24  25 0
 3-21G
 ****
 27  28  29  32  34  39  40  41  42  43  44  45  46  47  48  49 0
 3-21G
 ****


