%nproc=1
%NoSave
%Mem=1900MB
#P OB98/GEN NMR

erre ene a

0 1
  C     -185.746     -34.311    -190.688
  O     -186.749     -33.441    -191.171
  P     -186.806     -32.919    -192.682
  C     -188.447     -31.547    -194.164
  O     -188.186     -32.114    -192.885
  C     -189.811     -30.848    -194.244
  O     -190.860     -31.821    -194.046
  C     -189.950     -29.823    -193.114
  O     -189.405     -28.527    -193.256
  C     -191.421     -29.863    -192.721
  O     -192.177     -28.807    -193.320
  C     -191.893     -31.223    -193.244
  N     -195.559     -32.775    -190.096
  C     -195.660     -31.982    -191.222
  N     -196.852     -31.379    -191.420
  N     -194.671     -31.784    -192.061
  C     -193.510     -32.377    -191.678
  C     -193.295     -33.198    -190.592
  C     -194.407     -33.440    -189.701
  O     -194.336     -34.070    -188.643
  N     -191.977     -33.558    -190.483
  C     -191.385     -32.923    -191.473
  N     -192.270     -32.164    -192.204
  O     -186.378     -33.883    -193.742
  O     -185.720     -31.724    -192.645
  H     -191.801     -27.958    -193.019
  H     -185.282     -31.702    -193.517
  H     -196.332     -32.827    -189.443
  H     -190.322     -32.956    -191.688
  H     -192.768     -31.102    -193.897
  H     -191.536     -29.745    -191.637
  H     -197.583     -31.392    -190.721
  H     -189.418     -30.241    -192.248
  H     -196.911     -30.662    -192.135
  H     -189.980     -30.428    -195.241
  H     -188.381     -32.355    -194.901
  H     -187.658     -30.826    -194.409
  P     -188.726     -27.650    -192.101
  C     -186.547     -26.357    -191.715
  O     -187.331     -27.085    -192.648
  O     -188.265     -28.722    -191.003
  O     -189.622     -26.622    -191.481
  H     -188.168     -28.285    -190.135
  H     -185.797     -25.772    -192.253
  H     -186.039     -27.059    -191.044
  H     -187.169     -25.678    -191.126
  H     -185.920     -34.516    -189.652
  H     -184.788     -33.849    -190.804
  H     -185.770     -35.226    -191.242

 3  4  5  6  7  8  9  10  11  12  23  26  30  31 0
 6-311+G(2d,p)
 ****
 33  35  36  37  38 0
 6-311+G(2d,p)
 ****
 1  2  13  14  15  16  17  18  19  20  21  22  24  25 0
 3-21G
 ****
 27  28  29  32  34  39  40  41  42  43  44  45  46  47  48  49 0
 3-21G
 ****


