%nproc=1
%NoSave
%Mem=1900MB
#P OB98/GEN NMR

erre ene a

0 1
  C      110.388     688.020    -227.010
  O      110.267     687.133    -228.112
  P      111.133     685.784    -228.077
  C      109.039     684.219    -228.098
  O      110.195     684.680    -227.383
  C      107.872     684.014    -227.141
  O      107.402     685.288    -226.652
  C      106.665     683.345    -227.785
  O      106.869     681.953    -227.924
  C      105.558     683.715    -226.798
  O      105.492     682.763    -225.725
  C      106.012     685.096    -226.278
  N      105.188     686.195    -226.782
  C      103.835     686.147    -226.432
  O      103.416     685.221    -225.727
  N      102.998     687.137    -226.894
  C      103.478     688.077    -227.645
  N      102.605     689.028    -228.073
  C      104.887     688.144    -228.069
  C      105.683     687.173    -227.620
  O      112.234     686.086    -226.967
  O      111.730     685.392    -229.391
  H      106.293     682.916    -225.187
  H      113.043     685.552    -227.119
  H      105.231     688.951    -228.712
  H      106.728     687.144    -227.875
  H      105.976     685.132    -225.179
  H      104.572     683.726    -227.272
  H      106.447     683.800    -228.766
  H      108.234     683.424    -226.278
  H      101.632     688.951    -227.774
  H      109.279     683.270    -228.579
  H      102.877     689.813    -228.649
  H      108.793     684.950    -228.872
  P      106.918     681.350    -229.399
  C      109.327     680.592    -228.948
  O      108.480     681.342    -229.790
  O      106.353     682.562    -230.286
  O      106.169     680.076    -229.638
  H      106.242     682.275    -231.209
  H      110.320     680.540    -229.404
  H      108.958     679.581    -228.808
  H      109.430     681.090    -227.978
  H      109.759     688.871    -227.167
  H      111.405     688.340    -226.920
  H      110.091     687.517    -226.113

 3  4  5  6  7  8  9  10  11  12  13  21  23  27  28  29  30  32 0
 6-311+G(2d,p)
 ****
 34  35 0
 6-311+G(2d,p)
 ****
 1  2  14  15  16  17  18  19  20  22  24  25  26 0
 3-21G
 ****
 31  33  36  37  38  39  40  41  42  43  44  45  46 0
 3-21G
 ****


