%nproc=1
%NoSave
%Mem=1900MB
#P OB98/GEN NMR

erre ene a

0 1
  C      -39.281      71.028      48.198
  O      -38.272      71.920      47.751
  P      -38.366      73.495      48.055
  C      -39.999      75.317      47.262
  O      -39.386      74.069      46.957
  C      -40.411      76.029      45.975
  O      -39.210      76.436      45.275
  C      -41.198      75.186      44.968
  O      -42.594      75.125      45.212
  C      -40.944      75.975      43.685
  O      -41.804      77.132      43.645
  C      -39.484      76.405      43.849
  N      -36.615      75.613      39.680
  C      -37.412      76.645      40.051
  N      -38.160      76.772      41.170
  C      -37.992      75.707      41.974
  C      -37.212      74.585      41.732
  C      -36.498      74.560      40.521
  N      -35.670      73.517      40.159
  N      -37.311      73.687      42.783
  C      -38.124      74.271      43.640
  N      -38.557      75.493      43.201
  O      -37.051      74.187      48.147
  O      -39.211      73.586      49.409
  H      -41.477      77.750      44.326
  H      -39.101      74.469      49.817
  H      -37.462      77.477      39.350
  H      -38.432      73.845      44.586
  H      -39.294      77.413      43.459
  H      -41.150      75.391      42.782
  H      -40.767      74.182      44.862
  H      -40.969      76.936      46.242
  H      -39.274      75.937      47.799
  H      -35.099      73.643      39.335
  H      -35.457      72.814      40.851
  H      -40.864      75.153      47.917
  P      -43.280      73.668      45.189
  C      -43.600      71.881      43.303
  O      -43.269      73.209      43.652
  O      -44.601      73.594      45.875
  O      -42.157      72.739      45.861
  H      -41.343      72.634      45.340
  H      -43.690      71.819      42.213
  H      -44.551      71.586      43.747
  H      -42.807      71.200      43.629
  H      -39.035      70.031      47.897
  H      -40.220      71.308      47.769
  H      -39.349      71.072      49.265

 3  4  5  6  7  8  9  10  11  12  22  25  29  30  31  32 0
 6-311+G(2d,p)
 ****
 33  36  37 0
 6-311+G(2d,p)
 ****
 1  2  13  14  15  16  17  18  19  20  21  23  24  26 0
 3-21G
 ****
 27  28  34  35  38  39  40  41  42  43  44  45  46  47  48 0
 3-21G
 ****


