%nproc=1
%NoSave
%Mem=1900MB
#P OB98/GEN NMR

erre ene a

0 1
  C     -244.766     -68.880     -70.083
  O     -244.462     -68.973     -71.468
  P     -242.996     -69.487     -71.870
  C     -240.584     -68.626     -71.424
  O     -241.982     -68.346     -71.372
  C     -239.795     -67.350     -71.679
  O     -240.113     -66.825     -72.984
  C     -240.097     -66.217     -70.708
  O     -239.391     -66.369     -69.482
  C     -239.577     -65.013     -71.489
  O     -238.150     -64.906     -71.331
  C     -239.929     -65.394     -72.938
  N     -241.888     -61.185     -74.988
  C     -240.585     -61.477     -74.636
  N     -239.664     -60.519     -74.891
  N     -240.211     -62.600     -74.082
  C     -241.230     -63.482     -73.921
  C     -242.564     -63.312     -74.229
  C     -242.972     -62.040     -74.794
  O     -244.125     -61.704     -75.063
  N     -243.292     -64.435     -73.932
  C     -242.398     -65.301     -73.486
  N     -241.140     -64.757     -73.434
  O     -242.979     -69.323     -73.467
  O     -242.673     -70.884     -71.454
  H     -237.777     -65.796     -71.474
  H     -242.337     -69.948     -73.855
  H     -242.115     -60.318     -75.425
  H     -242.618     -66.319     -73.196
  H     -239.104     -65.155     -73.623
  H     -240.009     -64.065     -71.157
  H     -239.868     -59.689     -75.431
  H     -241.170     -66.107     -70.543
  H     -238.695     -60.725     -74.672
  H     -238.726     -67.600     -71.663
  H     -240.391     -69.333     -72.232
  H     -240.282     -69.085     -70.477
  P     -240.093     -65.763     -68.170
  C     -241.379     -63.537     -67.755
  O     -240.405     -64.241     -68.519
  O     -238.885     -65.684     -67.115
  O     -241.237     -66.575     -67.662
  H     -239.237     -65.729     -66.200
  H     -241.351     -63.846     -66.706
  H     -242.372     -63.740     -68.168
  H     -241.172     -62.471     -67.814
  H     -245.769     -68.527     -69.961
  H     -244.088     -68.198     -69.614
  H     -244.670     -69.845     -69.631

 3  4  5  6  7  8  9  10  11  12  23  26  30  31  33  0
 6-311+G(2d,p)
 ****
 35  36  37  38 0
 6-311+G(2d,p)
 ****
 1  2  13  14  15  16  17  18  19  20  21  22  24  25  27  28  29 0
 3-21G
 ****
 32  34  39  40  41  42  43  44  45  46  47  48  49 0
 3-21G
 ****


