%nproc=1
%NoSave
%Mem=1900MB
#P OB98/GEN NMR

erre ene a

0 1
  C     -162.223     216.837     313.443
  O     -163.606     216.712     313.188
  H     -161.926     216.065     314.159
  H     -162.007     217.817     313.876
  H     -161.652     216.703     312.521
  P     -164.253     217.740     312.134
  C     -166.159     216.174     311.303
  O     -165.806     217.327     312.057
  C     -166.261     214.950     312.215
  O     -167.253     215.203     313.241
  C     -166.667     213.675     311.476
  O     -165.873     212.580     311.944
  C     -168.126     213.477     311.848
  O     -168.522     212.109     311.776
  C     -168.186     214.106     313.245
  N     -169.536     214.557     313.578
  C     -170.305     213.709     314.380
  O     -169.847     212.630     314.761
  N     -171.589     214.075     314.689
  C     -172.089     215.162     314.186
  N     -173.377     215.460     314.509
  C     -171.330     216.064     313.298
  C     -170.071     215.706     313.043
  O     -163.658     217.244     310.739
  O     -164.008     219.185     312.423
  H     -167.791     211.559     312.132
  H     -163.804     217.913     310.026
  H     -171.795     216.953     312.890
  H     -169.438     216.309     312.397
  H     -167.858     213.386     314.010
  H     -168.757     214.043     311.156
  H     -166.550     213.754     310.396
  H     -165.303     214.821     312.734
  H     -173.869     214.810     315.113
  H     -165.393     215.998     310.540
  H     -173.871     216.263     314.154
  H     -167.121     216.346     310.810
  P     -164.426     212.425     311.270
  C     -162.943     211.558     313.214
  O     -163.660     211.236     312.031
  O     -163.647     213.742     311.737
  O     -164.469     212.282     309.782
  H     -163.655     214.409     311.027
  H     -162.488     210.673     313.607
  H     -163.616     211.966     313.939
  H     -162.185     212.278     312.987

 6  7  8  9  10  11  12  13  14  15  16  26  30  31  32  33  35 0
 6-311+G(2d,p)
 ****
 37  38 0
 6-311+G(2d,p)
 ****
 1  2  3  4  5  17  18  19  20  21  22  23  24  25 0
 3-21G
 ****
 27  28  29  34  36  39  40  41  42  43  44  45  46 0
 3-21G
 ****


