%nproc=1
%NoSave
%Mem=1900MB
#P OB98/GEN NMR

erre ene a

0 1
  C      116.806    -267.444    -174.997
  O      117.509    -267.713    -176.194
  H      116.822    -266.372    -174.784
  H      115.768    -267.765    -175.118
  H      117.251    -267.996    -174.164
  P      119.070    -267.339    -176.211
  C      119.595    -269.668    -175.192
  O      119.760    -268.261    -175.092
  C      120.277    -270.361    -174.017
  O      119.922    -271.759    -173.989
  C      121.803    -270.324    -174.050
  O      122.309    -269.079    -173.593
  C      122.133    -271.450    -173.083
  O      121.992    -270.984    -171.727
  C      121.039    -272.478    -173.404
  N      124.076    -276.551    -174.021
  C      123.812    -275.776    -172.945
  N      122.975    -274.724    -172.853
  C      122.362    -274.504    -174.028
  C      122.510    -275.219    -175.203
  C      123.418    -276.288    -175.179
  N      123.732    -277.031    -176.306
  N      121.718    -274.686    -176.204
  C      121.123    -273.653    -175.644
  N      121.472    -273.508    -174.327
  O      119.090    -265.872    -175.561
  O      119.714    -267.359    -177.555
  H      121.977    -271.779    -171.160
  H      119.114    -265.207    -176.275
  H      124.348    -276.036    -172.038
  H      120.435    -272.986    -176.150
  H      120.663    -272.978    -172.504
  H      123.157    -271.823    -173.193
  H      122.188    -270.580    -175.043
  H      119.898    -269.908    -173.092
  H      120.041    -270.020    -176.129
  H      124.674    -277.413    -176.294
  H      123.417    -276.622    -177.177
  H      118.525    -269.895    -175.200
  P      123.723    -268.590    -174.174
  C      122.386    -267.154    -175.861
  O      123.448    -268.082    -175.675
  O      124.517    -269.964    -174.378
  O      124.480    -267.652    -173.300
  H      125.362    -269.935    -173.888
  H      122.312    -266.900    -176.898
  H      122.581    -266.270    -175.291
  H      121.467    -267.594    -175.535

 6  7  8  9  10  11  12  13  14  15  25  28  32  33  34  35 0
 6-311+G(2d,p)
 ****
 36  39  40 0
 6-311+G(2d,p)
 ****
 1  2  3  4  5  16  17  18  19  20  21  22  23  24 0
 3-21G
 ****
 26  27  29  30  31  37  38  41  42  43  44  45  46  47  48 0
 3-21G
 ****


