%nproc=1
%NoSave
%Mem=1900MB
#P OB98/GEN NMR

erre ene a

0 1
  C      195.415    -897.960     718.642
  O      194.200    -898.080     717.916
  P      193.444    -896.740     717.447
  C      192.673    -896.440     719.865
  O      193.229    -895.800     718.723
  C      192.590    -895.440     721.035
  O      192.012    -894.180     720.630
  C      191.711    -895.940     722.178
  O      192.366    -896.930     722.931
  C      191.457    -894.640     722.938
  O      192.557    -894.300     723.803
  C      191.368    -893.590     721.782
  N      190.012    -893.180     721.471
  C      189.610    -891.970     722.048
  O      190.369    -891.340     722.784
  N      188.335    -891.510     721.762
  C      187.538    -892.200     721.009
  N      186.312    -891.710     720.773
  C      187.934    -893.490     720.416
  C      189.168    -893.910     720.670
  O      192.225    -896.950     716.566
  O      194.602    -895.960     716.610
  H      192.277    -893.480     724.263
  H      194.182    -895.430     715.911
  H      187.240    -894.040     719.784
  H      189.529    -894.870     720.292
  H      191.938    -892.690     722.028
  H      190.565    -894.690     723.543
  H      190.770    -896.320     721.793
  H      193.606    -895.260     721.408
  H      186.046    -890.830     721.209
  H      193.293    -897.290     720.147
  H      185.639    -892.140     720.158
  H      191.682    -896.820     719.624
  P      191.785    -898.410     722.853
  C      189.596    -897.910     724.154
  O      190.205    -898.320     722.928
  O      192.204    -899.050     724.280
  O      192.317    -899.250     721.718
  H      192.367    -900.000     724.172
  H      188.563    -897.580     723.938
  H      190.137    -897.030     724.571
  H      189.581    -898.710     724.866
  H      195.788    -898.935     718.877
  H      195.237    -897.418     719.547
  H      196.135    -897.436     718.048

 3  4  5  6  7  8  9  10  11  12  13  23  27  28  29  30  32 0
 6-311+G(2d,p)
 ****
 34  35 0
 6-311+G(2d,p)
 ****
 1  2  14  15  16  17  18  19  20  21  22  24  25  26 0
 3-21G
 ****
 31  33  36  37  38  39  40  41  42  43  44  45  46 0
 3-21G
 ****


