%nproc=1
%NoSave
%Mem=1900MB
#P OB98/GEN NMR

erre ene a

0 1
  C      -85.632      -3.839      12.157
  O      -84.883      -3.981      13.346
  P      -84.867      -5.321      14.216
  C      -83.397      -4.295      16.098
  O      -84.630      -4.917      15.755
  C      -82.895      -4.690      17.495
  O      -83.824      -4.218      18.490
  C      -82.855      -6.216      17.628
  O      -81.743      -6.944      17.146
  C      -83.224      -6.495      19.079
  O      -82.079      -6.724      19.903
  C      -83.950      -5.220      19.513
  N      -87.433      -5.984      23.117
  C      -86.130      -5.542      23.246
  N      -85.649      -5.482      24.507
  N      -85.372      -5.217      22.231
  C      -85.962      -5.421      21.029
  C      -87.247      -5.840      20.777
  C      -88.088      -6.157      21.907
  O      -89.219      -6.631      21.833
  N      -87.477      -6.003      19.435
  C      -86.318      -5.723      18.874
  N      -85.358      -5.404      19.805
  O      -84.106      -6.479      13.655
  O      -86.430      -5.722      14.209
  H      -81.471      -5.972      19.786
  H      -86.482      -6.698      14.205
  H      -87.944      -6.295      23.934
  H      -86.113      -5.770      17.811
  H      -83.489      -4.801      20.417
  H      -83.843      -7.397      19.155
  H      -86.152      -5.862      25.296
  H      -83.699      -6.605      17.044
  H      -84.654      -5.328      24.628
  H      -81.943      -4.203      17.722
  H      -83.547      -3.213      16.033
  H      -82.638      -4.559      15.357
  P      -81.606      -8.536      17.083
  C      -79.208      -8.492      17.971
  O      -80.519      -8.993      18.165
  O      -80.863      -8.815      15.691
  O      -82.899      -9.282      17.139
  H      -81.043      -9.728      15.399
  H      -78.507      -9.090      18.559
  H      -79.160      -7.452      18.310
  H      -78.922      -8.542      16.916
  H      -85.483      -2.858      11.756
  H      -86.671      -3.983      12.370
  H      -85.310      -4.568      11.443

 3  4  5  6  7  8  9  10  11  12  23  26  30  31 0
 6-311+G(2d,p)
 ****
 33  35  36  37  38 0
 6-311+G(2d,p)
 ****
 1  2  13  14  15  16  17  18  19  20  21  22  24  25 0
 3-21G
 ****
 27  28  29  32  34  39  40  41  42  43  44  45  46  47  48  49 0
 3-21G
 ****


