%nproc=1
%NoSave
%Mem=1900MB
#P OB98/GEN NMR

erre ene a

0 1
  C      412.656    -148.111     -37.503
  O      413.919    -148.239     -38.124
  H      412.150    -149.078     -37.537
  H      412.051    -147.378     -38.041
  H      412.771    -147.807     -36.459
  P      414.871    -146.947     -38.104
  C      416.801    -148.079     -36.790
  O      416.381    -147.498     -38.017
  C      418.308    -148.324     -36.798
  O      418.722    -148.763     -35.468
  C      418.771    -149.394     -37.799
  O      420.054    -149.002     -38.306
  C      418.965    -150.620     -36.919
  O      419.839    -151.580     -37.505
  C      419.506    -149.959     -35.651
  N      422.148    -151.876     -31.823
  C      422.511    -150.967     -32.798
  N      423.775    -150.495     -32.749
  N      421.706    -150.559     -33.741
  C      420.461    -151.087     -33.652
  C      419.979    -151.999     -32.742
  C      420.890    -152.463     -31.716
  O      420.631    -153.282     -30.839
  N      418.667    -152.309     -33.003
  C      418.360    -151.588     -34.068
  N      419.417    -150.835     -34.498
  O      414.607    -146.340     -36.648
  O      414.620    -145.949     -39.182
  H      420.756    -151.243     -37.422
  H      413.908    -145.659     -36.686
  H      422.813    -152.169     -31.127
  H      417.400    -151.583     -34.565
  H      420.558    -149.666     -35.748
  H      418.000    -151.104     -36.728
  H      424.438    -150.729     -32.026
  H      418.079    -149.565     -38.629
  H      424.049    -149.796     -33.427
  H      418.815    -147.370     -36.985
  H      416.284    -149.033     -36.653
  H      416.534    -147.410     -35.965
  P      420.095    -148.039     -39.587
  C      419.624    -145.687     -38.583
  O      420.584    -146.593     -39.105
  O      418.540    -147.798     -39.900
  O      420.813    -148.611     -40.763
  H      418.422    -147.617     -40.851
  H      420.108    -144.773     -38.309
  H      419.160    -146.117     -37.720
  H      418.881    -145.488     -39.326

 6  7  8  9  10  11  12  13  14  15  26  29  33  34 0
 6-311+G(2d,p)
 ****
 36  38  39  40  41 0
 6-311+G(2d,p)
 ****
 1  2  3  4  5  16  17  18  19  20  21  22  23  24  25 0
 3-21G
 ****
 27  28  30  31  32  35  37  42  43  44  45  46  47 0
 3-21G
 ****
 48  49 0
 3-21G
 ****


