%nproc=1
%NoSave
%Mem=1900MB
#P OB98/GEN NMR

erre ene a

0 1
  C       61.146    -111.444     562.574
  O       60.396    -112.008     563.644
  P       58.818    -112.222     563.396
  C       58.073    -110.753     565.426
  O       58.085    -110.940     564.019
  C       57.099    -109.626     565.790
  O       57.576    -108.363     565.256
  C       55.694    -109.809     565.242
  O       54.947    -110.678     566.069
  C       55.178    -108.380     565.229
  O       54.728    -107.980     566.543
  C       56.430    -107.592     564.813
  N       55.873    -104.098     561.201
  C       55.528    -104.054     562.543
  N       54.989    -102.891     562.991
  N       55.692    -105.054     563.364
  C       56.215    -106.149     562.774
  C       56.592    -106.317     561.452
  C       56.460    -105.191     560.569
  O       56.833    -105.141     559.403
  N       57.067    -107.584     561.221
  C       57.018    -108.170     562.402
  N       56.526    -107.322     563.391
  O       58.457    -113.422     564.404
  O       58.435    -112.534     561.978
  H       53.851    -108.365     566.721
  H       58.435    -114.272     563.930
  H       55.745    -103.284     560.622
  H       57.342    -109.174     562.612
  H       56.496    -106.609     565.319
  H       54.326    -108.245     564.554
  H       54.822    -102.089     562.404
  H       55.730    -110.199     564.210
  H       54.731    -102.847     563.967
  H       57.081    -109.537     566.887
  H       59.079    -110.487     565.766
  H       57.769    -111.698     565.915
  P       53.632    -111.364     565.443
  C       52.092    -110.511     567.362
  O       52.374    -110.540     565.972
  O       53.533    -112.758     566.231
  O       53.695    -111.571     563.960
  H       53.201    -113.447     565.621
  H       51.609    -109.559     567.614
  H       53.015    -110.608     567.955
  H       51.420    -111.339     567.607
  H       62.172    -111.356     562.865
  H       60.757    -110.475     562.338
  H       61.073    -112.077     561.714

 3  4  5  6  7  8  9  10  11  12  23  26  30  31 0
 6-311+G(2d,p)
 ****
 33  35  36  37  38 0
 6-311+G(2d,p)
 ****
 1  2  13  14  15  16  17  18  19  20  21  22  24  25 0
 3-21G
 ****
 27  28  29  32  34  39  40  41  42  43  44  45  46  47  48  49 0
 3-21G
 ****


