%nproc=1
%NoSave
%Mem=1900MB
#P OB98/GEN NMR

erre ene a

0 1
  C     -840.495      61.015     836.685
  O     -839.114      61.376     836.771
  P     -837.905      60.341     836.528
  C     -837.450      59.901     839.044
  O     -836.943      60.391     837.818
  C     -836.389      59.994     840.152
  O     -835.245      59.184     839.839
  C     -835.802      61.397     840.362
  O     -836.708      62.276     841.013
  C     -834.555      61.071     841.185
  O     -834.867      60.950     842.592
  C     -834.142      59.692     840.618
  N     -832.925      59.753     839.833
  C     -831.722      59.608     840.527
  O     -831.725      59.532     841.750
  N     -830.550      59.581     839.810
  C     -830.562      59.782     838.525
  N     -829.370      59.724     837.862
  C     -831.806      60.080     837.775
  C     -832.927      60.038     838.485
  O     -837.194      60.520     835.224
  O     -838.583      58.886     836.621
  H     -838.052      58.250     836.103
  H     -834.046      60.661     843.042
  H     -831.763      60.282     836.705
  H     -833.886      60.225     837.991
  H     -834.003      58.976     841.439
  H     -833.785      61.843     841.091
  H     -835.502      61.819     839.397
  H     -836.836      59.628     841.092
  H     -828.542      59.506     838.419
  H     -837.721      58.845     838.909
  H     -829.283      59.839     836.875
  H     -838.355      60.457     839.311
  P     -837.816      62.975     840.087
  C     -836.424      65.165     839.948
  O     -837.666      64.570     840.265
  O     -839.205      62.647     840.833
  O     -837.838      62.500     838.664
  H     -839.905      62.463     840.169
  H     -836.609      66.212     839.638
  H     -835.925      64.645     839.117
  H     -835.786      65.161     840.826
  H     -841.101      61.873     836.887
  H     -840.709      60.250     837.402
  H     -840.708      60.651     835.702

 3  4  5  6  7  8  9  10  11  12  13  24  27  28  29  30  32 0
 6-311+G(2d,p)
 ****
 34  35 0
 6-311+G(2d,p)
 ****
 1  2  14  15  16  17  18  19  20  21  22  23  25  26 0
 3-21G
 ****
 31  33  36  37  38  39  40  41  42  43  44  45  46 0
 3-21G
 ****


