%nproc=1
%NoSave
%Mem=1900MB
#P OB98/GEN NMR

erre ene a

0 1
  C      -26.041    -188.636    -305.624
  O      -26.710    -189.768    -305.077
  P      -27.311    -190.856    -306.091
  C      -26.359    -192.861    -304.757
  O      -27.517    -192.213    -305.254
  C      -26.700    -193.787    -303.584
  O      -27.083    -192.972    -302.439
  C      -27.862    -194.750    -303.855
  O      -27.591    -195.956    -303.122
  C      -29.052    -194.045    -303.230
  O      -30.120    -194.942    -302.939
  C      -28.388    -193.421    -302.008
  N      -31.541    -191.897    -298.279
  C      -30.931    -193.080    -298.510
  N      -30.099    -193.409    -299.527
  C      -29.928    -192.367    -300.355
  C      -30.513    -191.113    -300.266
  C      -31.355    -190.887    -299.163
  N      -31.972    -189.681    -298.915
  N      -30.117    -190.320    -301.322
  C      -29.306    -191.076    -302.035
  N      -29.145    -192.310    -301.480
  O      -26.062    -191.186    -307.036
  O      -28.491    -190.402    -306.887
  H      -29.910    -195.418    -302.114
  H      -26.225    -190.846    -307.939
  H      -31.128    -193.867    -297.785
  H      -28.824    -190.774    -302.960
  H      -28.241    -194.149    -301.196
  H      -29.427    -193.283    -303.916
  H      -28.018    -194.983    -304.920
  H      -25.798    -194.343    -303.306
  H      -25.653    -192.109    -304.407
  H      -32.445    -189.560    -298.039
  H      -31.689    -188.873    -299.460
  H      -25.884    -193.434    -305.564
  P      -27.617    -197.334    -303.957
  C      -25.999    -198.500    -302.291
  O      -27.277    -198.502    -302.912
  O      -26.304    -197.235    -304.868
  O      -28.853    -197.529    -304.771
  H      -26.433    -197.757    -305.685
  H      -26.102    -198.903    -301.279
  H      -25.576    -197.492    -302.229
  H      -25.322    -199.137    -302.864
  H      -25.699    -188.006    -304.830
  H      -26.717    -188.089    -306.247
  H      -25.205    -188.963    -306.206

 3  4  5  6  7  8  9  10  11  12  22  25  29  30  31  32 0
 6-311+G(2d,p)
 ****
 33  36  37 0
 6-311+G(2d,p)
 ****
 1  2  13  14  15  16  17  18  19  20  21  23  24  26 0
 3-21G
 ****
 27  28  34  35  38  39  40  41  42  43  44  45  46  47  48 0
 3-21G
 ****


