%nproc=1
%NoSave
%Mem=1900MB
#P OB98/GEN NMR

erre ene a

0 1
  C     -373.143     170.596    -179.444
  O     -371.837     170.673    -178.910
  H     -373.837     170.349    -178.638
  H     -373.189     169.809    -180.201
  H     -373.434     171.553    -179.882
  P     -370.668     171.116    -179.917
  C     -371.002     173.563    -179.129
  O     -370.908     172.674    -180.232
  C     -371.564     174.912    -179.572
  O     -370.664     175.498    -180.558
  C     -372.959     174.836    -180.212
  O     -373.680     176.021    -179.845
  C     -372.654     174.911    -181.699
  O     -373.774     175.346    -182.468
  C     -371.476     175.884    -181.685
  N     -370.587     178.399    -185.950
  C     -371.369     178.729    -184.860
  N     -372.016     179.914    -184.912
  N     -371.506     177.966    -183.809
  C     -370.775     176.826    -183.878
  C     -369.970     176.380    -184.897
  C     -369.849     177.226    -186.068
  O     -369.189     176.977    -187.073
  N     -369.424     175.156    -184.598
  C     -369.898     174.866    -183.400
  N     -370.722     175.847    -182.922
  O     -371.083     170.386    -181.279
  O     -369.284     170.756    -179.489
  H     -373.998     176.257    -182.186
  H     -370.636     169.522    -181.349
  H     -370.528     179.017    -186.740
  H     -369.681     173.965    -182.842
  H     -371.796     176.923    -181.539
  H     -372.346     173.927    -182.071
  H     -371.921     180.574    -185.667
  H     -373.536     173.951    -179.933
  H     -372.558     180.194    -184.106
  H     -371.566     175.589    -178.710
  H     -370.003     173.712    -178.706
  H     -371.650     173.122    -178.365
  P     -375.226     175.870    -179.454
  C     -374.683     176.397    -176.966
  O     -375.313     175.524    -177.892
  O     -375.633     174.484    -180.146
  O     -376.091     176.995    -179.921
  H     -376.586     174.487    -180.359
  H     -374.831     176.030    -175.972
  H     -375.108     177.375    -177.052
  H     -373.635     176.444    -177.176

 6  7  8  9  10  11  12  13  14  15  26  29  33  34 0
 6-311+G(2d,p)
 ****
 36  38  39  40  41 0
 6-311+G(2d,p)
 ****
 1  2  3  4  5  16  17  18  19  20  21  22  23  24  25 0
 3-21G
 ****
 27  28  30  31  32  35  37  42  43  44  45  46  47 0
 3-21G
 ****
 48  49 0
 3-21G
 ****


