%nproc=1
%NoSave
%Mem=1900MB
#P OB98/GEN NMR

erre ene a

0 1
  C       93.791    -246.082    -107.929
  O       93.349    -247.406    -107.727
  H       93.422    -245.736    -108.899
  H       94.884    -246.056    -107.939
  H       93.414    -245.412    -107.152
  P       93.357    -248.004    -106.243
  C       91.194    -246.707    -105.697
  O       92.529    -246.995    -105.304
  C       90.189    -247.028    -104.588
  O       90.560    -246.348    -103.367
  C       88.778    -246.551    -104.926
  O       88.013    -247.435    -105.724
  C       88.161    -246.395    -103.538
  O       87.630    -247.645    -103.068
  C       89.356    -245.962    -102.682
  N       87.819    -242.139     -99.659
  C       87.493    -243.479     -99.596
  N       86.602    -243.835     -98.645
  N       87.987    -244.378    -100.407
  C       88.791    -243.864    -101.368
  C       89.176    -242.552    -101.539
  C       88.665    -241.570    -100.601
  O       88.917    -240.368    -100.615
  N       90.006    -242.405    -102.624
  C       90.064    -243.613    -103.152
  N       89.363    -244.538    -102.410
  O       94.867    -247.771    -105.752
  O       92.972    -249.447    -106.130
  H       88.268    -248.350    -103.279
  H       95.100    -248.429    -105.073
  H       87.432    -241.496     -98.992
  H       90.613    -243.877    -104.050
  H       89.361    -246.476    -101.714
  H       87.329    -245.681    -103.541
  H       86.109    -243.162     -98.078
  H       88.813    -245.565    -105.399
  H       86.142    -244.743     -98.738
  H       90.215    -248.104    -104.377
  H       90.986    -247.321    -106.576
  H       91.106    -245.660    -106.002
  P       86.871    -246.862    -106.691
  C       88.391    -246.197    -108.701
  O       87.567    -245.769    -107.636
  O       85.973    -245.991    -105.696
  O       86.071    -247.898    -107.402
  H       85.202    -246.512    -105.394
  H       88.770    -245.344    -109.224
  H       87.819    -246.802    -109.373
  H       89.208    -246.769    -108.313

 6  7  8  9  10  11  12  13  14  15  26  29  33  34 0
 6-311+G(2d,p)
 ****
 36  38  39  40  41 0
 6-311+G(2d,p)
 ****
 1  2  3  4  5  16  17  18  19  20  21  22  23  24  25 0
 3-21G
 ****
 27  28  30  31  32  35  37  42  43  44  45  46  47 0
 3-21G
 ****
 48  49 0
 3-21G
 ****


