%nproc=1
%NoSave
%Mem=1900MB
#P OB98/GEN NMR

erre ene a

0 1
  C     -207.358    -429.371     281.165
  O     -206.641    -430.438     280.565
  P     -207.054    -431.937     280.973
  C     -207.712    -432.995     283.257
  O     -206.948    -432.014     282.571
  C     -206.851    -433.701     284.298
  O     -206.377    -432.763     285.290
  C     -207.584    -434.780     285.088
  O     -207.665    -436.004     284.378
  C     -206.673    -434.925     286.296
  O     -205.542    -435.750     285.961
  C     -206.230    -433.478     286.543
  N     -206.955    -433.037     291.532
  C     -205.937    -433.657     290.840
  N     -205.011    -434.304     291.583
  N     -205.829    -433.646     289.533
  C     -206.832    -432.969     288.925
  C     -207.894    -432.309     289.500
  C     -208.006    -432.342     290.941
  O     -208.914    -431.856     291.609
  N     -208.698    -431.731     288.555
  C     -208.126    -432.035     287.402
  N     -207.016    -432.822     287.573
  O     -205.806    -432.812     280.481
  O     -208.342    -432.411     280.389
  H     -205.902    -436.586     285.605
  H     -206.056    -433.750     280.432
  H     -206.996    -433.082     292.536
  H     -208.489    -431.728     286.434
  H     -205.178    -433.418     286.832
  H     -207.174    -435.401     287.148
  H     -205.074    -434.401     292.583
  H     -208.573    -434.433     285.414
  H     -204.287    -434.822     291.098
  H     -205.978    -434.126     283.787
  H     -208.084    -433.722     282.535
  H     -208.570    -432.512     283.737
  P     -208.987    -436.889     284.608
  C     -210.334    -437.579     286.723
  O     -209.163    -436.979     286.199
  O     -208.520    -438.356     284.186
  O     -210.180    -436.426     283.836
  H     -209.284    -438.885     283.889
  H     -210.173    -437.801     287.781
  H     -210.561    -438.514     286.202
  H     -211.177    -436.891     286.627
  H     -206.978    -428.438     280.803
  H     -207.241    -429.416     282.228
  H     -208.395    -429.454     280.917

 3  4  5  6  7  8  9  10  11  12  23  26  30  31 0
 6-311+G(2d,p)
 ****
 33  35  36  37  38 0
 6-311+G(2d,p)
 ****
 1  2  13  14  15  16  17  18  19  20  21  22  24  25 0
 3-21G
 ****
 27  28  29  32  34  39  40  41  42  43  44  45  46  47  48  49 0
 3-21G
 ****


