%nproc=1
%NoSave
%Mem=1900MB
#P OB98/GEN NMR

erre ene a

0 1
  C     -899.086     441.774     392.911
  O     -898.566     440.672     393.628
  P     -898.216     439.349     392.791
  C     -899.036     437.684     394.613
  O     -897.946     438.181     393.855
  C     -898.646     436.371     395.302
  O     -898.376     435.367     394.307
  C     -897.386     436.457     396.157
  O     -897.646     437.111     397.386
  C     -897.046     434.975     396.279
  O     -897.866     434.352     397.273
  C     -897.396     434.449     394.870
  N     -892.716     432.460     394.269
  C     -893.606     432.394     395.273
  N     -894.826     432.959     395.384
  C     -895.106     433.670     394.285
  C     -894.296     433.850     393.162
  C     -893.046     433.214     393.182
  N     -892.146     433.285     392.136
  N     -894.926     434.657     392.236
  C     -896.076     434.952     392.773
  N     -896.246     434.364     393.991
  O     -896.766     439.662     392.195
  O     -899.206     439.005     391.704
  H     -897.556     434.660     398.147
  H     -896.656     439.255     391.307
  H     -893.286     431.782     396.140
  H     -896.836     435.578     392.309
  H     -897.856     433.447     394.912
  H     -895.996     434.806     396.562
  H     -896.586     436.984     395.612
  H     -899.496     436.043     395.906
  H     -899.896     437.498     393.960
  H     -891.226     432.915     392.298
  H     -892.336     433.949     391.398
  H     -899.336     438.436     395.355
  P     -897.216     438.646     397.515
  C     -895.476     437.792     399.203
  O     -896.516     438.735     398.956
  O     -898.626     439.362     397.757
  O     -896.416     439.171     396.363
  H     -899.136     438.913     398.458
  H     -895.056     437.990     400.196
  H     -894.686     437.881     398.455
  H     -895.896     436.780     399.203
  H     -899.273     442.583     393.586
  H     -900.000     441.489     392.433
  H     -898.378     442.084     392.171

 3  4  5  6  7  8  9  10  11  12  22  25  29  30  31  32 0
 6-311+G(2d,p)
 ****
 33  36  37 0
 6-311+G(2d,p)
 ****
 1  2  13  14  15  16  17  18  19  20  21  23  24  26 0
 3-21G
 ****
 27  28  34  35  38  39  40  41  42  43  44  45  46  47  48 0
 3-21G
 ****


