%nproc=1
%NoSave
%Mem=1900MB
#P OB98/GEN NMR

erre ene a

0 1
  C       55.589     282.770     108.246
  O       55.514     284.044     107.627
  P       56.317     284.250     106.252
  C       54.265     284.685     104.720
  O       55.333     283.812     105.062
  C       53.854     284.496     103.259
  O       52.796     285.446     102.942
  C       54.986     284.715     102.242
  O       54.757     283.797     101.166
  C       54.747     286.148     101.803
  O       55.402     286.501     100.595
  C       53.222     286.170     101.766
  N       52.346     290.326      98.920
  C       52.849     289.110      98.608
  N       53.045     288.049      99.418
  C       52.652     288.331     100.671
  C       52.140     289.527     101.143
  C       51.988     290.560     100.203
  N       51.483     291.805     100.528
  N       51.877     289.453     102.495
  C       52.225     288.229     102.835
  N       52.681     287.510     101.764
  O       57.398     283.073     106.285
  O       56.956     285.595     106.091
  H       55.161     287.413     100.341
  H       58.255     283.371     105.927
  H       53.132     288.970      97.568
  H       52.184     287.823     103.837
  H       52.825     285.646     100.888
  H       55.124     286.825     102.581
  H       55.981     284.536     102.658
  H       53.431     283.490     103.145
  H       54.589     285.722     104.853
  H       51.602     292.530      99.835
  H       51.417     292.032     101.511
  H       53.420     284.507     105.392
  P       55.942     283.518     100.120
  C       56.618     281.205     101.014
  O       56.958     282.575     100.933
  O       56.713     284.924     100.149
  O       55.522     283.066      98.765
  H       56.910     285.204     101.061
  H       57.435     280.671     101.502
  H       56.470     280.790     100.013
  H       55.709     281.081     101.609
  H       55.011     282.776     109.146
  H       56.609     282.546     108.479
  H       55.204     282.027     107.580

 3  4  5  6  7  8  9  10  11  12  22  25  29  30  31  32 0
 6-311+G(2d,p)
 ****
 33  36  37 0
 6-311+G(2d,p)
 ****
 1  2  13  14  15  16  17  18  19  20  21  23  24  26 0
 3-21G
 ****
 27  28  34  35  38  39  40  41  42  43  44  45  46  47  48 0
 3-21G
 ****


