%nproc=1
%NoSave
%Mem=1900MB
#P OB98/GEN NMR

erre ene a

0 1
  C      407.472     829.313     213.750
  O      407.415     828.230     214.667
  H      407.742     828.927     212.760
  H      408.234     830.041     214.051
  H      406.500     829.809     213.678
  P      407.191     828.564     216.211
  C      409.350     827.240     216.753
  O      408.644     828.464     216.893
  C      410.760     827.383     217.318
  O      411.589     828.173     216.435
  C      410.795     828.095     218.662
  O      410.356     827.246     219.710
  C      412.244     828.521     218.730
  O      413.095     827.430     219.139
  C      412.519     828.905     217.256
  N      412.406     830.346     217.018
  C      413.609     831.072     217.052
  O      414.675     830.503     217.271
  N      413.551     832.433     216.870
  C      412.412     833.018     216.641
  N      412.426     834.379     216.461
  C      411.126     832.287     216.584
  C      411.206     830.966     216.792
  O      406.122     827.791     216.926
  O      406.891     830.143     216.226
  H      413.978     827.644     218.778
  H      405.933     830.306     216.128
  H      410.199     832.814     216.392
  H      410.301     830.362     216.749
  H      413.527     828.585     216.956
  H      412.395     829.348     219.430
  H      410.177     829.000     218.633
  H      411.209     826.377     217.399
  H      413.327     834.822     216.524
  H      409.408     827.025     215.681
  H      411.630     834.913     216.204
  H      408.820     826.430     217.258
  P      410.088     827.799     221.176
  C      411.968     826.266     222.030
  O      411.469     827.599     221.985
  O      408.863     827.282     221.852
  O      410.061     829.404     220.947
  H      409.221     829.684     220.506
  H      412.881     826.246     222.587
  H      412.150     825.919     221.034
  H      411.248     825.631     222.503

 6  7  8  9  10  11  12  13  14  15  16  26  30  31  32  33  35 0
 6-311+G(2d,p)
 ****
 37  38 0
 6-311+G(2d,p)
 ****
 1  2  3  4  5  17  18  19  20  21  22  23  24  25 0
 3-21G
 ****
 27  28  29  34  36  39  40  41  42  43  44  45  46 0
 3-21G
 ****


