%nproc=1
%NoSave
%Mem=1900MB
#P OB98/GEN NMR

erre ene a

0 1
  C      -90.446      -8.517      59.980
  O      -91.752      -7.941      60.022
  P      -92.023      -6.697      60.999
  C      -91.229      -4.565      59.805
  O      -92.338      -5.399      60.108
  C      -91.202      -4.139      58.330
  O      -91.433      -5.278      57.458
  C      -92.242      -3.069      57.965
  O      -91.639      -2.220      56.981
  C      -93.355      -3.895      57.352
  O      -94.241      -3.115      56.565
  C      -92.535      -4.942      56.593
  N      -93.318      -6.115      56.238
  C      -93.471      -6.395      54.879
  O      -93.041      -5.606      54.036
  N      -94.132      -7.543      54.515
  C      -94.716      -8.259      55.424
  N      -95.344      -9.399      55.026
  C      -94.729      -7.894      56.853
  C      -93.996      -6.837      57.187
  O      -91.007      -6.492      62.073
  O      -93.458      -7.046      61.627
  H      -94.620      -2.403      57.122
  H      -93.484      -6.726      62.551
  H      -95.298      -8.477      57.562
  H      -93.935      -6.493      58.210
  H      -92.111      -4.514      55.674
  H      -93.941      -4.371      58.148
  H      -92.558      -2.461      58.817
  H      -90.196      -3.760      58.108
  H      -95.349      -9.623      54.039
  H      -90.304      -5.101      60.038
  H      -95.779     -10.038      55.680
  H      -91.247      -3.691      60.466
  P      -90.889      -0.885      57.462
  C      -88.598      -1.933      58.105
  O      -89.317      -1.092      57.228
  O      -91.004      -1.005      59.061
  O      -91.481       0.407      57.003
  H      -90.948      -0.113      59.449
  H      -87.637      -2.178      57.643
  H      -89.137      -2.864      58.296
  H      -88.413      -1.413      59.049
  H      -90.437      -9.329      59.284
  H      -90.184      -8.878      60.953
  H      -89.739      -7.775      59.672

 3  4  5  6  7  8  9  10  11  12  13  23  27  28  29  30  32 0
 6-311+G(2d,p)
 ****
 34  35 0
 6-311+G(2d,p)
 ****
 1  2  14  15  16  17  18  19  20  21  22  24  25  26 0
 3-21G
 ****
 31  33  36  37  38  39  40  41  42  43  44  45  46 0
 3-21G
 ****


