%nproc=1
%NoSave
%Mem=1900MB
#P OB98/GEN NMR

erre ene a

0 1
  C      -43.084     198.307     -90.824
  O      -42.981     199.579     -90.215
  P      -42.961     200.899     -91.120
  C      -40.703     202.127     -91.117
  O      -41.472     201.077     -91.692
  C      -40.191     201.717     -89.737
  O      -39.593     200.405     -89.793
  C      -39.111     202.634     -89.177
  O      -39.674     203.836     -88.687
  C      -38.489     201.741     -88.108
  O      -39.274     201.769     -86.906
  C      -38.574     200.356     -88.771
  N      -35.288     196.472     -89.175
  C      -36.381     196.651     -88.400
  N      -37.184     197.735     -88.321
  C      -36.746     198.704     -89.138
  C      -35.629     198.681     -89.958
  C      -34.891     197.486     -89.980
  N      -33.813     197.268     -90.810
  N      -35.489     199.890     -90.621
  C      -36.497     200.625     -90.199
  N      -37.315     199.929     -89.355
  O      -43.545     202.117     -90.487
  O      -43.798     200.480     -92.421
  H      -39.126     202.635     -86.484
  H      -44.578     201.061     -92.505
  H      -36.652     195.811     -87.767
  H      -36.684     201.652     -90.489
  H      -38.879     199.582     -88.057
  H      -37.474     202.045     -87.844
  H      -38.363     202.844     -89.950
  H      -41.048     201.668     -89.054
  H      -41.343     203.012     -91.026
  H      -33.450     196.328     -90.849
  H      -33.694     197.879     -91.617
  H      -39.864     202.364     -91.777
  P      -38.723     205.073     -88.329
  C      -38.616     205.644     -85.831
  O      -38.137     204.800     -86.862
  O      -39.316     206.426     -88.538
  O      -37.445     204.848     -89.268
  H      -37.068     205.713     -89.516
  H      -38.108     206.613     -85.887
  H      -38.390     205.182     -84.865
  H      -39.696     205.788     -85.913
  H      -43.082     197.549     -90.069
  H      -42.253     198.158     -91.481
  H      -43.995     198.252     -91.383

 3  4  5  6  7  8  9  10  11  12  22  25  29  30  31  32 0
 6-311+G(2d,p)
 ****
 33  36  37 0
 6-311+G(2d,p)
 ****
 1  2  13  14  15  16  17  18  19  20  21  23  24  26 0
 3-21G
 ****
 27  28  34  35  38  39  40  41  42  43  44  45  46  47  48 0
 3-21G
 ****


