%nproc=1
%NoSave
%Mem=1900MB
#P OB98/GEN NMR

erre ene a

0 1
  C     -152.914      62.678     116.687
  O     -154.008      62.938     117.562
  P     -154.874      64.276     117.573
  C     -153.326      65.710     119.143
  O     -153.902      65.512     117.858
  C     -152.671      67.095     119.247
  O     -152.022      67.208     120.551
  C     -151.589      67.316     118.183
  O     -151.617      68.614     117.601
  C     -150.316      66.908     118.906
  O     -149.136      67.423     118.307
  C     -150.602      67.365     120.335
  N     -146.449      67.197     123.299
  C     -146.768      68.082     122.288
  N     -145.861      69.043     122.015
  N     -147.873      68.022     121.595
  C     -148.657      66.970     121.914
  C     -148.442      66.016     122.883
  C     -147.240      66.121     123.681
  O     -146.918      65.375     124.600
  N     -149.468      65.106     122.923
  C     -150.289      65.495     121.970
  N     -149.843      66.631     121.331
  O     -156.144      64.224     118.356
  O     -155.272      64.487     116.023
  H     -149.005      66.957     117.460
  H     -156.148      64.918     116.021
  H     -145.594      67.304     123.816
  H     -151.220      65.006     121.708
  H     -150.353      68.417     120.487
  H     -150.247      65.814     118.861
  H     -144.939      69.071     122.425
  H     -151.744      66.649     117.328
  H     -145.997      69.545     121.138
  H     -153.453      67.860     119.190
  H     -152.567      64.929     119.255
  H     -154.071      65.564     119.926
  P     -151.692      69.016     116.057
  C     -149.165      69.221     115.673
  O     -150.349      68.521     115.338
  O     -151.544      70.608     116.035
  O     -152.950      68.604     115.365
  H     -152.350      71.008     115.652
  H     -148.393      68.976     114.939
  H     -148.821      68.910     116.664
  H     -149.336      70.300     115.664
  H     -152.514      61.707     116.894
  H     -152.154      63.416     116.837
  H     -153.252      62.715     115.672

 3  4  5  6  7  8  9  10  11  12  23  26  30  31 0
 6-311+G(2d,p)
 ****
 33  35  36  37  38 0
 6-311+G(2d,p)
 ****
 1  2  13  14  15  16  17  18  19  20  21  22  24  25 0
 3-21G
 ****
 27  28  29  32  34  39  40  41  42  43  44  45  46  47  48  49 0
 3-21G
 ****


