%nproc=1
%NoSave
%Mem=1900MB
#P OB98/GEN NMR

erre ene a

0 1
  C     -177.316     217.938     -42.639
  O     -176.594     217.786     -43.844
  H     -177.496     216.953     -42.208
  H     -178.278     218.417     -42.840
  H     -176.746     218.540     -41.924
  P     -176.119     219.126     -44.586
  C     -177.622     219.762     -46.619
  O     -177.443     219.786     -45.210
  C     -179.114     219.743     -46.952
  O     -179.734     220.930     -46.388
  C     -179.398     219.755     -48.462
  O     -180.546     218.943     -48.726
  C     -179.721     221.212     -48.741
  O     -180.509     221.406     -49.911
  C     -180.435     221.606     -47.448
  N     -180.441     223.053     -47.229
  C     -181.653     223.649     -46.905
  O     -182.706     223.042     -46.721
  N     -181.627     225.021     -46.800
  C     -180.547     225.827     -47.007
  O     -180.595     227.044     -46.919
  C     -179.292     225.136     -47.351
  C     -179.298     223.803     -47.449
  O     -175.343     218.578     -45.877
  O     -175.288     220.058     -43.771
  H     -174.397     218.456     -45.680
  H     -180.615     222.373     -50.047
  H     -182.503     225.468     -46.567
  H     -178.415     225.743     -47.527
  H     -178.394     223.267     -47.713
  H     -181.464     221.230     -47.453
  H     -178.793     221.783     -48.864
  H     -178.554     219.399     -49.056
  H     -179.579     218.874     -46.469
  H     -177.152     218.862     -47.026
  H     -177.145     220.642     -47.056
  P     -180.340     217.656     -49.668
  C     -181.226     218.552     -51.960
  O     -180.108     218.230     -51.151
  O     -181.818     217.049     -49.705
  O     -179.284     216.733     -49.165
  H     -182.517     217.725     -49.715
  H     -180.888     218.917     -52.907
  H     -181.812     219.305     -51.476
  H     -181.823     217.677     -52.108

 6  7  8  9  10  11  12  13  14  15  16  27  31  32  33  34  35 0
 6-311+G(2d,p)
 ****
 36  37 0
 6-311+G(2d,p)
 ****
 1  2  3  4  5  17  18  19  20  21  22  23  24  25 0
 3-21G
 ****
 26  28  29  30  38  39  40  41  42  43  44  45 0
 3-21G
 ****


