%nproc=1
%NoSave
%Mem=1900MB
#P OB98/GEN NMR

erre ene a

0 1
  C     -436.867     319.637      72.107
  O     -437.431     320.881      72.499
  P     -438.132     321.769      71.359
  C     -440.368     320.519      71.767
  O     -439.364     320.894      70.829
  C     -441.447     321.585      71.850
  O     -442.073     321.750      70.566
  C     -442.585     321.268      72.819
  O     -442.230     321.564      74.161
  C     -443.668     322.208      72.317
  O     -443.455     323.526      72.851
  C     -443.433     322.200      70.797
  N     -448.205     321.506      69.242
  C     -447.650     322.549      69.957
  N     -448.479     323.566      70.285
  N     -446.394     322.591      70.323
  C     -445.676     321.524      69.897
  C     -446.112     320.432      69.184
  C     -447.513     320.375      68.828
  O     -448.077     319.447      68.252
  N     -445.081     319.568      68.920
  C     -444.020     320.150      69.439
  N     -444.335     321.329      70.066
  O     -437.082     321.699      70.150
  O     -438.437     323.176      71.747
  H     -443.958     324.146      72.292
  H     -437.184     322.483      69.578
  H     -449.173     321.532      68.973
  H     -443.013     319.755      69.383
  H     -443.513     323.211      70.376
  H     -444.672     321.899      72.621
  H     -449.417     323.646      69.918
  H     -442.911     320.230      72.705
  H     -448.078     324.354      70.777
  H     -440.970     322.538      72.119
  H     -439.909     320.396      72.754
  H     -440.797     319.560      71.457
  P     -443.122     320.870      75.305
  C     -441.180     319.171      75.641
  O     -442.565     319.367      75.417
  O     -444.546     320.697      74.606
  O     -443.198     321.640      76.578
  H     -445.255     320.675      75.279
  H     -440.763     319.936      76.296
  H     -440.655     319.187      74.680
  H     -441.034     318.194      76.105
  H     -436.437     319.155      72.960
  H     -436.107     319.805      71.373
  H     -437.632     319.013      71.693

 3  4  5  6  7  8  9  10  11  12  23  26  30  31  33  0
 6-311+G(2d,p)
 ****
 35  36  37  38 0
 6-311+G(2d,p)
 ****
 1  2  13  14  15  16  17  18  19  20  21  22  24  25  27  28  29 0
 3-21G
 ****
 32  34  39  40  41  42  43  44  45  46  47  48  49 0
 3-21G
 ****


