%nproc=1
%NoSave
%Mem=1900MB
#P OB98/GEN NMR

erre ene a

0 1
  C        2.997      56.078      79.663
  O        1.647      56.189      80.076
  P        0.896      54.850      80.536
  C        1.264      55.273      83.083
  O        0.339      55.103      82.017
  C        0.745      56.341      84.048
  O        0.895      57.656      83.472
  C       -0.736      56.202      84.371
  O       -0.965      55.185      85.331
  C       -1.074      57.598      84.874
  O       -0.728      57.745      86.260
  C       -0.170      58.482      83.990
  N       -0.907      59.148      82.923
  C       -0.239      60.183      82.275
  O        0.897      60.543      82.585
  N       -0.935      60.818      81.284
  C       -2.226      60.564      80.921
  O       -2.816      61.207      80.061
  C       -2.893      59.480      81.660
  C       -2.217      58.837      82.615
  O        2.083      53.799      80.749
  O       -0.123      54.348      79.570
  H       -1.205      57.040      86.741
  H        1.788      52.906      80.485
  H       -0.460      61.553      80.786
  H       -3.918      59.252      81.399
  H       -2.695      58.045      83.180
  H        0.318      59.252      84.601
  H       -2.141      57.822      84.785
  H       -1.303      56.006      83.452
  H        1.344      56.299      84.966
  H        2.231      55.581      82.677
  H        1.394      54.318      83.600
  P       -2.451      54.581      85.412
  C       -1.686      52.775      83.687
  O       -2.311      53.064      84.918
  O       -3.153      55.355      84.199
  O       -3.093      54.791      86.742
  H       -2.534      55.536      83.472
  H       -0.860      53.462      83.487
  H       -2.421      52.846      82.882
  H       -1.297      51.755      83.721
  H        3.366      57.044      79.386
  H        3.060      55.418      78.823
  H        3.585      55.688      80.467

 3  4  5  6  7  8  9  10  11  12  13  23  28  29  30  31  32 0
 6-311+G(2d,p)
 ****
 33  34 0
 6-311+G(2d,p)
 ****
 1  2  14  15  16  17  18  19  20  21  22  24  25  26 0
 3-21G
 ****
 27  35  36  37  38  39  40  41  42  43  44  45 0
 3-21G
 ****


