%nproc=1
%NoSave
%Mem=1900MB
#P OB98/GEN NMR

erre ene a

0 1
  C       60.379    -191.590     -46.576
  O       60.530    -191.344     -45.185
  P       59.693    -190.181     -44.466
  C       60.824    -190.640     -42.201
  O       60.579    -189.679     -43.224
  C       62.011    -190.217     -41.336
  O       63.220    -190.297     -42.131
  C       61.899    -188.789     -40.810
  O       62.460    -188.736     -39.496
  C       62.787    -187.978     -41.739
  O       63.276    -186.792     -41.086
  C       63.862    -189.005     -42.105
  N       66.513    -185.688     -44.995
  C       66.114    -185.636     -43.707
  N       65.393    -186.542     -43.011
  C       65.124    -187.617     -43.770
  C       65.470    -187.817     -45.098
  C       66.196    -186.788     -45.724
  N       66.613    -186.847     -47.037
  N       64.995    -189.032     -45.551
  C       64.395    -189.564     -44.509
  N       64.455    -188.754     -43.408
  O       58.286    -190.536     -44.120
  O       59.762    -188.948     -45.480
  H       63.883    -187.083     -40.375
  H       58.910    -188.470     -45.495
  H       66.412    -184.743     -43.159
  H       63.894    -190.522     -44.499
  H       64.664    -189.039     -41.357
  H       62.213    -187.666     -42.618
  H       60.868    -188.420     -40.793
  H       62.112    -190.931     -40.507
  H       61.048    -191.600     -42.678
  H       67.232    -186.117     -47.360
  H       66.528    -187.731     -47.521
  H       59.920    -190.760     -41.592
  P       61.463    -188.254     -38.323
  C       62.125    -190.283     -36.833
  O       62.076    -188.881     -36.984
  O       60.036    -188.571     -38.635
  O       61.802    -186.688     -38.250
  H       62.713    -186.502     -38.581
  H       62.538    -190.514     -35.845
  H       62.779    -190.722     -37.591
  H       61.121    -190.712     -36.909
  H       61.017    -192.399     -46.866
  H       60.646    -190.711     -47.125
  H       59.361    -191.846     -46.785

 3  4  5  6  7  8  9  10  11  12  22  25  29  30  31  32 0
 6-311+G(2d,p)
 ****
 33  36  37 0
 6-311+G(2d,p)
 ****
 1  2  13  14  15  16  17  18  19  20  21  23  24  26 0
 3-21G
 ****
 27  28  34  35  38  39  40  41  42  43  44  45  46  47  48 0
 3-21G
 ****


