%nproc=1
%NoSave
%Mem=1900MB
#P OB98/GEN NMR

erre ene a

0 1
  C       53.335     283.357     111.197
  O       53.636     284.742     111.144
  P       54.656     285.238     110.008
  C       53.042     284.797     108.021
  O       54.269     284.462     108.657
  C       53.289     285.335     106.611
  O       52.023     285.359     105.890
  C       53.872     286.756     106.561
  O       54.747     286.804     105.429
  C       52.631     287.601     106.335
  O       52.901     288.914     105.870
  C       51.860     286.699     105.377
  N       47.655     286.405     102.483
  C       48.896     285.892     102.323
  N       49.963     286.005     103.142
  C       49.652     286.729     104.229
  C       48.439     287.331     104.520
  C       47.406     287.145     103.587
  N       46.141     287.680     103.749
  N       48.503     288.018     105.715
  C       49.736     287.834     106.139
  N       50.460     287.047     105.284
  O       56.037     284.555     110.438
  O       54.782     286.725     109.878
  H       53.475     289.381     106.506
  H       56.790     285.155     110.284
  H       49.053     285.312     101.416
  H       50.157     288.258     107.041
  H       52.279     286.722     104.363
  H       52.093     287.704     107.286
  H       54.435     287.023     107.459
  H       53.950     284.635     106.084
  H       52.534     285.573     108.600
  H       45.540     287.659     102.938
  H       46.030     288.391     104.459
  H       52.394     283.914     107.998
  P       56.192     287.482     105.593
  C       56.873     285.051     106.068
  O       57.028     286.406     106.442
  O       55.882     288.598     106.702
  O       56.813     288.004     104.343
  H       55.420     288.218     107.471
  H       57.566     284.445     106.656
  H       57.100     284.921     105.007
  H       55.851     284.721     106.276
  H       52.648     283.172     111.996
  H       54.235     282.803     111.364
  H       52.895     283.052     110.271

 3  4  5  6  7  8  9  10  11  12  22  25  29  30  31  32 0
 6-311+G(2d,p)
 ****
 33  36  37 0
 6-311+G(2d,p)
 ****
 1  2  13  14  15  16  17  18  19  20  21  23  24  26 0
 3-21G
 ****
 27  28  34  35  38  39  40  41  42  43  44  45  46  47  48 0
 3-21G
 ****


