%nproc=1
%NoSave
%Mem=1900MB
#P OB98/GEN NMR

erre ene a

0 1
  C      -83.462     513.823     205.862
  O      -84.246     512.927     206.628
  H      -82.904     513.281     205.095
  H      -84.128     514.542     205.378
  H      -82.771     514.364     206.516
  P      -83.459     511.722     207.334
  C      -84.601     510.111     205.655
  O      -83.386     510.532     206.258
  C      -84.315     509.120     204.536
  O      -83.781     509.809     203.385
  C      -83.285     508.049     204.875
  O      -83.843     507.005     205.662
  C      -82.911     507.564     203.485
  O      -83.911     506.638     203.011
  C      -82.963     508.852     202.655
  N      -78.417     508.293     200.342
  C      -79.508     507.500     200.374
  N      -80.676     507.710     201.016
  C      -80.661     508.887     201.670
  C      -79.620     509.793     201.722
  C      -78.446     509.461     201.020
  N      -77.329     510.267     201.005
  N      -79.971     510.898     202.471
  C      -81.203     510.658     202.870
  N      -81.662     509.451     202.410
  O      -84.508     511.175     208.419
  O      -82.158     512.093     207.971
  H      -84.004     505.952     203.698
  H      -84.019     510.889     209.212
  H      -79.440     506.580     199.806
  H      -81.799     511.327     203.476
  H      -83.450     508.697     201.687
  H      -81.949     507.050     203.453
  H      -82.400     508.490     205.357
  H      -85.268     508.657     204.238
  H      -85.121     510.978     205.244
  H      -76.601     510.073     200.336
  H      -77.362     511.143     201.516
  H      -85.235     509.647     206.421
  P      -82.859     506.236     206.676
  C      -83.031     503.939     205.479
  O      -82.203     505.046     205.825
  O      -83.875     505.466     207.651
  O      -81.917     507.106     207.430
  H      -83.447     505.302     208.513
  H      -82.461     503.229     204.916
  H      -83.856     504.281     204.890
  H      -83.397     503.475     206.371

 6  7  8  9  10  11  12  13  14  15  25  28  32  33  34  35 0
 6-311+G(2d,p)
 ****
 36  39  40 0
 6-311+G(2d,p)
 ****
 1  2  3  4  5  16  17  18  19  20  21  22  23  24 0
 3-21G
 ****
 26  27  29  30  31  37  38  41  42  43  44  45  46  47  48 0
 3-21G
 ****


