%nproc=1
%NoSave
%Mem=1900MB
#P OB98/GEN NMR

erre ene a

0 1
  C      -59.943       9.415     180.685
  O      -59.982      10.175     181.880
  H      -60.245       8.392     180.914
  H      -58.926       9.399     180.290
  H      -60.629       9.829     179.943
  P      -59.760      11.765     181.800
  C      -57.177      11.736     181.611
  O      -58.413      11.995     180.955
  C      -56.015      11.818     180.625
  O      -55.962      13.162     180.065
  C      -54.624      11.542     181.261
  O      -53.794      10.959     180.236
  C      -54.175      12.954     181.600
  O      -52.819      13.028     181.947
  C      -54.626      13.675     180.319
  N      -54.639      15.134     180.385
  C      -53.408      15.777     180.447
  O      -52.315      15.221     180.440
  N      -53.461      17.155     180.521
  C      -54.603      17.908     180.528
  O      -54.589      19.136     180.565
  C      -55.868      17.162     180.474
  C      -55.832      15.830     180.397
  O      -59.835      12.504     183.092
  O      -60.901      12.245     180.778
  H      -61.643      12.640     181.280
  H      -52.277      12.887     181.143
  H      -52.584      17.640     180.556
  H      -56.786      17.734     180.488
  H      -56.750      15.258     180.346
  H      -54.000      13.357     179.469
  H      -54.734      13.324     182.469
  H      -54.674      10.863     182.113
  H      -56.200      11.137     179.785
  H      -57.224      10.730     182.051
  H      -57.036      12.469     182.425
  P      -53.486       9.392     180.130
  C      -51.374       9.753     181.583
  O      -52.547       8.979     181.369
  O      -52.952       8.959     178.798
  O      -54.888       8.663     180.437
  H      -54.903       7.785     180.015
  H      -50.846       9.373     182.433
  H      -51.647      10.773     181.759
  H      -50.746       9.696     180.718

 6  7  8  9  10  11  12  13  14  15  16  27  31  32  33  34  35 0
 6-311+G(2d,p)
 ****
 36  37 0
 6-311+G(2d,p)
 ****
 1  2  3  4  5  17  18  19  20  21  22  23  24  25 0
 3-21G
 ****
 26  28  29  30  38  39  40  41  42  43  44  45 0
 3-21G
 ****


