%nproc=1
%NoSave
%Mem=1900MB
#P OB98/GEN NMR

erre ene a

0 1
  C     1163.904    -898.680     -15.939
  O     1163.075    -898.340     -17.053
  P     1161.530    -898.770     -17.173
  C     1160.447    -896.700     -18.327
  O     1160.650    -897.430     -17.149
  C     1160.796    -895.180     -18.179
  O     1162.250    -895.030     -18.207
  C     1160.253    -894.380     -19.350
  O     1158.914    -893.950     -19.340
  C     1161.290    -893.280     -19.569
  O     1160.933    -892.070     -18.900
  C     1162.580    -893.880     -18.964
  N     1165.090    -892.340     -23.154
  C     1164.044    -891.730     -22.497
  N     1163.600    -890.560     -23.020
  N     1163.516    -892.200     -21.395
  C     1163.999    -893.420     -21.031
  C     1165.018    -894.130     -21.614
  C     1165.673    -893.560     -22.794
  O     1166.586    -894.050     -23.406
  N     1165.231    -895.320     -20.966
  C     1164.352    -895.330     -19.992
  N     1163.558    -894.180     -20.004
  O     1161.096    -899.900     -16.280
  O     1161.409    -899.280     -18.706
  H     1161.480    -891.350     -19.285
  H     1160.738    -900.000     -18.692
  H     1165.500    -891.930     -23.970
  H     1164.222    -896.120     -19.264
  H     1163.056    -893.170     -18.279
  H     1161.366    -893.020     -20.637
  H     1163.904    -890.210     -23.913
  H     1160.352    -895.040     -20.253
  H     1162.714    -890.240     -22.653
  H     1160.487    -894.800     -17.194
  H     1159.390    -896.800     -18.592
  H     1161.003    -897.130     -19.156
  P     1157.685    -894.650     -20.107
  C     1155.920    -894.680     -18.227
  O     1156.841    -895.450     -18.981
  O     1158.356    -895.830     -20.948
  O     1156.868    -893.730     -20.987
  H     1157.730    -896.150     -21.634
  H     1155.641    -895.240     -17.338
  H     1155.006    -894.500     -18.808
  H     1156.370    -893.710     -17.919
  H     1164.886    -898.283     -16.091
  H     1163.960    -899.745     -15.848
  H     1163.486    -898.267     -15.045

 3  4  5  6  7  8  9  10  11  12  23  26  30  31 0
 6-311+G(2d,p)
 ****
 33  35  36  37  38 0
 6-311+G(2d,p)
 ****
 1  2  13  14  15  16  17  18  19  20  21  22  24  25 0
 3-21G
 ****
 27  28  29  32  34  39  40  41  42  43  44  45  46  47  48  49 0
 3-21G
 ****


