%nproc=1
%NoSave
%Mem=1900MB
#P OB98/GEN NMR

erre ene a

0 1
  C      285.842     -47.710      19.257
  O      285.003     -47.192      20.277
  P      284.114     -45.900      19.934
  C      281.869     -47.057      19.294
  O      283.024     -46.366      18.850
  C      280.613     -46.482      18.640
  O      279.466     -47.260      19.071
  C      280.322     -45.017      18.984
  O      279.689     -44.433      17.837
  C      279.318     -45.124      20.118
  O      278.546     -43.940      20.285
  C      278.524     -46.349      19.677
  N      274.353     -46.412      22.536
  C      274.729     -45.530      21.540
  N      273.838     -44.566      21.226
  N      275.874     -45.589      20.909
  C      276.653     -46.617      21.320
  C      276.411     -47.529      22.320
  C      275.128     -47.477      22.982
  O      274.718     -48.288      23.809
  N      277.479     -48.365      22.507
  C      278.332     -48.010      21.569
  N      277.857     -46.985      20.794
  O      285.121     -44.989      19.090
  O      283.536     -45.181      21.111
  H      277.687     -44.196      20.679
  H      285.576     -44.343      19.665
  H      273.451     -46.328      22.975
  H      279.299     -48.460      21.399
  H      277.756     -46.104      18.929
  H      279.847     -45.318      21.061
  H      272.924     -44.480      21.649
  H      281.212     -44.446      19.260
  H      274.073     -43.926      20.477
  H      280.701     -46.608      17.552
  H      281.780     -46.942      20.379
  H      281.971     -48.125      19.067
  P      279.792     -42.845      17.651
  C      282.266     -42.524      16.955
  O      281.298     -42.415      17.979
  O      278.969     -42.286      18.909
  O      279.223     -42.326      16.371
  H      278.536     -41.446      18.670
  H      283.097     -41.850      17.183
  H      281.851     -42.254      15.979
  H      282.643     -43.548      16.916
  H      286.369     -48.564      19.628
  H      286.544     -46.960      18.957
  H      285.246     -47.997      18.416

 3  4  5  6  7  8  9  10  11  12  23  26  30  31 0
 6-311+G(2d,p)
 ****
 33  35  36  37  38 0
 6-311+G(2d,p)
 ****
 1  2  13  14  15  16  17  18  19  20  21  22  24  25 0
 3-21G
 ****
 27  28  29  32  34  39  40  41  42  43  44  45  46  47  48  49 0
 3-21G
 ****


