%nproc=1
%NoSave
%Mem=1900MB
#P OB98/GEN NMR

erre ene a

0 1
  C     -438.838     210.480     243.465
  O     -437.866     211.008     242.567
  P     -436.445     211.595     242.995
  C     -434.802     209.888     241.854
  O     -435.391     210.394     243.044
  C     -433.882     208.697     242.156
  O     -432.864     209.122     243.113
  C     -434.633     207.520     242.790
  O     -434.241     206.252     242.280
  C     -434.440     207.759     244.278
  O     -434.653     206.600     245.069
  C     -433.036     208.355     244.326
  N     -430.917     208.733     248.953
  C     -431.043     207.629     248.138
  N     -430.559     206.463     248.615
  N     -431.611     207.657     246.962
  C     -432.123     208.864     246.637
  C     -432.074     210.029     247.365
  C     -431.398     209.999     248.644
  O     -431.239     210.954     249.399
  N     -432.694     211.059     246.707
  C     -433.135     210.514     245.589
  N     -432.804     209.181     245.497
  O     -436.451     212.533     244.153
  O     -435.973     212.430     241.698
  H     -434.582     206.859     246.005
  H     -435.441     213.179     242.033
  H     -430.449     208.660     249.840
  H     -433.681     211.035     244.813
  H     -432.262     207.585     244.346
  H     -435.182     208.502     244.594
  H     -430.223     206.345     249.558
  H     -435.703     207.570     242.555
  H     -430.852     205.623     248.114
  H     -433.374     208.398     241.233
  H     -434.216     210.713     241.434
  H     -435.568     209.622     241.125
  P     -435.145     205.126     241.600
  C     -433.796     204.740     239.453
  O     -434.994     205.245     240.009
  O     -436.652     205.598     241.851
  O     -434.936     203.749     242.139
  H     -437.120     204.928     242.389
  H     -433.701     205.111     238.431
  H     -433.836     203.647     239.430
  H     -432.931     205.066     240.033
  H     -439.696     210.157     242.913
  H     -439.128     211.238     244.163
  H     -438.421     209.649     243.994

 3  4  5  6  7  8  9  10  11  12  23  26  30  31 0
 6-311+G(2d,p)
 ****
 33  35  36  37  38 0
 6-311+G(2d,p)
 ****
 1  2  13  14  15  16  17  18  19  20  21  22  24  25 0
 3-21G
 ****
 27  28  29  32  34  39  40  41  42  43  44  45  46  47  48  49 0
 3-21G
 ****


