%nproc=1
%NoSave
%Mem=1900MB
#P OB98/GEN NMR

erre ene a

0 1
  C      272.370      -8.787     -46.275
  O      271.350      -9.276     -47.123
  H      273.336      -9.141     -46.645
  H      272.222      -9.164     -45.258
  H      272.370      -7.693     -46.270
  P      269.867      -8.735     -46.861
  C      269.402     -10.790     -45.294
  O      269.362      -9.381     -45.477
  C      268.790     -11.158     -43.943
  O      269.526     -10.563     -42.856
  C      267.376     -10.642     -43.748
  O      266.428     -11.327     -44.535
  C      267.207     -10.858     -42.251
  O      266.913     -12.231     -41.957
  C      268.614     -10.474     -41.729
  N      268.642      -9.155     -41.114
  C      269.103      -9.108     -39.791
  O      269.465     -10.139     -39.225
  N      269.114      -7.899     -39.142
  C      268.725      -6.829     -39.760
  N      268.750      -5.665     -39.058
  C      268.254      -6.830     -41.160
  C      268.235      -8.014     -41.767
  O      269.008      -9.524     -47.954
  O      269.713      -7.250     -46.905
  H      266.969     -12.320     -40.986
  H      269.129     -10.488     -47.923
  H      267.948      -5.910     -41.638
  H      267.904      -8.103     -42.794
  H      268.960     -11.203     -40.984
  H      266.390     -10.262     -41.839
  H      267.336      -9.560     -43.938
  H      268.839     -12.249     -43.833
  H      269.058      -5.708     -38.093
  H      270.429     -11.165     -45.367
  H      268.439      -4.777     -39.424
  H      268.825     -11.247     -46.105
  P      265.313     -10.520     -45.358
  C      263.637     -10.607     -43.406
  O      264.404      -9.769     -44.266
  O      264.548     -11.327     -46.351
  O      266.138      -9.305     -46.002
  H      266.572      -8.721     -45.356
  H      263.076     -10.001     -42.726
  H      264.293     -11.248     -42.855
  H      262.967     -11.201     -43.992

 6  7  8  9  10  11  12  13  14  15  16  26  30  31  32  33  35 0
 6-311+G(2d,p)
 ****
 37  38 0
 6-311+G(2d,p)
 ****
 1  2  3  4  5  17  18  19  20  21  22  23  24  25 0
 3-21G
 ****
 27  28  29  34  36  39  40  41  42  43  44  45  46 0
 3-21G
 ****


