%nproc=1
%NoSave
%Mem=1900MB
#P OB98/GEN NMR

erre ene a

0 1
  C     -175.520     277.342      66.847
  O     -176.082     277.908      68.020
  P     -176.711     276.977      69.168
  C     -174.841     277.204      70.938
  O     -176.152     277.583      70.543
  C     -174.335     278.143      72.028
  O     -173.957     279.404      71.444
  C     -175.364     278.476      73.103
  O     -175.522     277.397      74.011
  C     -174.766     279.748      73.690
  O     -173.707     279.427      74.604
  C     -174.184     280.434      72.436
  N     -175.048     281.487      71.913
  C     -175.056     282.694      72.618
  O     -174.357     282.849      73.618
  N     -175.835     283.723      72.151
  C     -176.560     283.557      71.087
  N     -177.259     284.631      70.632
  C     -176.624     282.284      70.349
  C     -175.847     281.304      70.807
  O     -176.474     275.516      68.989
  O     -178.253     277.380      69.212
  H     -173.108     278.812      74.136
  H     -178.816     276.860      68.589
  H     -177.255     282.187      69.476
  H     -175.823     280.344      70.309
  H     -173.201     280.863      72.660
  H     -175.494     280.366      74.225
  H     -176.334     278.703      72.645
  H     -173.442     277.693      72.482
  H     -177.049     285.525      71.065
  H     -174.180     277.277      70.068
  H     -177.605     284.672      69.682
  H     -174.853     276.166      71.285
  P     -177.016     276.953      74.383
  C     -176.490     274.488      74.991
  O     -176.868     275.770      75.459
  O     -177.525     276.224      73.052
  O     -177.911     278.078      74.787
  H     -178.100     276.819      72.537
  H     -176.207     273.876      75.850
  H     -175.637     274.559      74.312
  H     -177.334     274.013      74.484
  H     -175.158     278.123      66.212
  H     -176.268     276.779      66.329
  H     -174.710     276.696      67.115

 3  4  5  6  7  8  9  10  11  12  13  23  27  28  29  30  32 0
 6-311+G(2d,p)
 ****
 34  35 0
 6-311+G(2d,p)
 ****
 1  2  14  15  16  17  18  19  20  21  22  24  25  26 0
 3-21G
 ****
 31  33  36  37  38  39  40  41  42  43  44  45  46 0
 3-21G
 ****


