%nproc=1
%NoSave
%Mem=1900MB
#P OB98/GEN NMR

erre ene a

0 1
  C     -425.868    -899.120     587.672
  O     -425.161    -898.000     588.157
  H     -426.697    -899.340     588.366
  H     -425.219    -900.000     587.636
  H     -426.280    -898.920     586.684
  P     -423.866    -897.480     587.358
  C     -425.041    -895.280     586.747
  O     -423.928    -895.880     587.424
  C     -425.271    -893.860     587.247
  O     -426.045    -893.890     588.481
  C     -423.983    -893.060     587.535
  O     -424.063    -891.770     586.945
  C     -423.973    -892.950     589.051
  O     -423.204    -891.840     589.518
  C     -425.473    -892.900     589.349
  N     -425.751    -893.160     590.747
  C     -425.611    -892.070     591.626
  O     -425.260    -890.970     591.193
  N     -425.810    -892.270     592.968
  C     -426.083    -893.450     593.414
  N     -426.243    -893.580     594.763
  C     -426.220    -894.640     592.540
  C     -426.053    -894.410     591.231
  O     -423.709    -898.050     585.983
  O     -422.629    -897.830     588.316
  H     -422.361    -891.800     588.991
  H     -421.809    -897.880     587.778
  H     -426.445    -895.590     592.960
  H     -426.136    -895.220     590.509
  H     -425.895    -891.920     589.076
  H     -423.535    -893.860     589.486
  H     -423.089    -893.560     587.159
  H     -425.892    -893.320     586.507
  H     -426.134    -892.740     595.335
  H     -425.920    -895.900     586.920
  H     -426.432    -894.460     595.225
  H     -424.794    -895.260     585.674
  P     -422.716    -890.890     586.974
  C     -422.736    -890.800     584.376
  O     -422.637    -890.070     585.585
  O     -421.555    -891.990     586.849
  O     -422.567    -890.050     588.215
  H     -421.082    -892.050     587.700
  H     -422.668    -890.127     583.547
  H     -423.675    -891.311     584.344
  H     -421.940    -891.513     584.324

 6  7  8  9  10  11  12  13  14  15  16  26  30  31  32  33  35 0
 6-311+G(2d,p)
 ****
 37  38 0
 6-311+G(2d,p)
 ****
 1  2  3  4  5  17  18  19  20  21  22  23  24  25 0
 3-21G
 ****
 27  28  29  34  36  39  40  41  42  43  44  45  46 0
 3-21G
 ****


