%nproc=1
%NoSave
%Mem=1900MB
#P OB98/GEN NMR

erre ene a

0 1
  C     -803.413     614.681    -170.683
  O     -803.502     614.249    -172.033
  P     -802.385     614.605    -173.118
  C     -802.880     612.319    -174.258
  O     -802.673     613.714    -174.434
  C     -802.707     611.516    -175.561
  O     -801.375     611.742    -176.076
  C     -802.819     610.006    -175.267
  O     -804.096     609.403    -175.193
  C     -801.838     609.364    -176.237
  O     -802.483     608.839    -177.402
  C     -800.875     610.491    -176.606
  N     -796.821     607.456    -176.615
  C     -797.908     607.440    -177.461
  N     -798.019     606.378    -178.271
  N     -798.821     608.394    -177.470
  C     -798.627     609.345    -176.529
  C     -797.588     609.459    -175.638
  C     -796.564     608.433    -175.665
  O     -795.620     608.361    -174.869
  N     -797.755     610.517    -174.774
  C     -798.928     611.000    -175.103
  N     -799.525     610.302    -176.130
  O     -800.978     614.740    -172.632
  O     -802.873     616.075    -173.594
  H     -803.159     608.201    -177.112
  H     -802.073     616.592    -173.810
  H     -796.196     606.669    -176.595
  H     -799.430     611.843    -174.614
  H     -800.829     610.609    -177.692
  H     -801.349     608.515    -175.761
  H     -797.426     605.574    -178.191
  H     -802.379     609.848    -174.278
  H     -798.887     606.262    -178.798
  H     -803.392     611.866    -176.331
  H     -803.893     612.181    -173.852
  H     -802.173     611.939    -173.501
  P     -804.489     608.176    -174.226
  C     -806.488     609.659    -173.634
  O     -806.054     608.335    -173.847
  O     -803.745     608.494    -172.854
  O     -804.108     606.825    -174.729
  H     -803.645     607.671    -172.335
  H     -807.441     609.647    -173.086
  H     -806.643     610.166    -174.603
  H     -805.755     610.244    -173.057
  H     -804.265     614.330    -170.139
  H     -803.386     615.750    -170.652
  H     -802.521     614.289    -170.241

 3  4  5  6  7  8  9  10  11  12  23  26  30  31 0
 6-311+G(2d,p)
 ****
 33  35  36  37  38 0
 6-311+G(2d,p)
 ****
 1  2  13  14  15  16  17  18  19  20  21  22  24  25 0
 3-21G
 ****
 27  28  29  32  34  39  40  41  42  43  44  45  46  47  48  49 0
 3-21G
 ****


