%nproc=1
%NoSave
%Mem=1900MB
#P OB98/GEN NMR

erre ene a

0 1
  C     -503.520     120.495    -190.506
  O     -503.776     121.391    -189.418
  P     -504.241     122.879    -189.809
  C     -506.055     122.790    -187.953
  O     -504.988     123.519    -188.549
  C     -506.263     123.224    -186.509
  O     -505.260     122.664    -185.626
  C     -506.158     124.738    -186.314
  O     -507.319     125.394    -186.783
  C     -505.953     124.822    -184.798
  O     -507.201     124.672    -184.112
  C     -505.062     123.593    -184.530
  N     -501.128     124.126    -181.299
  C     -502.426     123.792    -181.099
  N     -503.413     123.674    -182.009
  C     -502.948     123.925    -183.248
  C     -501.653     124.270    -183.606
  C     -500.717     124.367    -182.568
  N     -499.401     124.726    -182.767
  N     -501.555     124.451    -184.970
  C     -502.777     124.242    -185.424
  N     -503.652     123.913    -184.424
  O     -505.416     122.633    -190.870
  O     -503.141     123.712    -190.384
  H     -507.034     124.810    -183.157
  H     -505.116     122.876    -191.768
  H     -502.705     123.598    -180.064
  H     -503.078     124.327    -186.469
  H     -505.341     123.072    -183.608
  H     -505.509     125.767    -184.481
  H     -505.266     125.126    -186.831
  H     -507.249     122.883    -186.176
  H     -505.844     121.711    -187.982
  H     -498.813     124.847    -181.954
  H     -499.096     124.991    -183.693
  H     -506.965     122.941    -188.546
  P     -507.214     126.194    -188.173
  C     -509.717     125.721    -188.471
  O     -508.709     126.719    -188.424
  O     -507.072     125.003    -189.223
  O     -506.146     127.236    -188.219
  H     -507.716     124.286    -189.050
  H     -510.689     126.215    -188.615
  H     -509.745     125.166    -187.537
  H     -509.540     125.053    -189.314
  H     -503.220     119.543    -190.121
  H     -502.740     120.893    -191.120
  H     -504.409     120.380    -191.090

 3  4  5  6  7  8  9  10  11  12  22  25  29  30  31  32 0
 6-311+G(2d,p)
 ****
 33  36  37 0
 6-311+G(2d,p)
 ****
 1  2  13  14  15  16  17  18  19  20  21  23  24  26 0
 3-21G
 ****
 27  28  34  35  38  39  40  41  42  43  44  45  46  47  48 0
 3-21G
 ****


