%nproc=1
%NoSave
%Mem=1900MB
#P OB98/GEN NMR

erre ene a

0 1
  C      401.893    -293.280     -61.638
  O      402.916    -293.531     -60.697
  P      402.703    -294.422     -59.388
  C      401.329    -294.217     -57.195
  O      401.913    -293.543     -58.297
  C      400.563    -293.279     -56.246
  O      399.630    -292.487     -57.012
  C      399.724    -294.093     -55.255
  O      400.319    -294.607     -54.077
  C      398.465    -293.270     -55.029
  O      398.524    -292.487     -53.835
  C      398.412    -292.358     -56.263
  N      393.432    -293.258     -56.606
  C      394.156    -292.742     -55.545
  N      393.484    -292.633     -54.375
  N      395.411    -292.391     -55.625
  C      395.969    -292.648     -56.834
  C      395.352    -293.142     -57.962
  C      393.951    -293.492     -57.871
  O      393.302    -294.033     -58.762
  N      396.247    -293.345     -58.982
  C      397.409    -293.007     -58.467
  N      397.295    -292.617     -57.149
  O      403.870    -295.241     -58.938
  O      401.560    -295.450     -59.888
  H      397.656    -292.048     -53.723
  H      401.723    -296.308     -59.449
  H      392.483    -293.588     -56.465
  H      398.364    -293.059     -58.983
  H      398.342    -291.304     -55.959
  H      397.589    -293.920     -54.932
  H      392.568    -293.029     -54.241
  H      399.385    -294.991     -55.791
  H      394.023    -292.421     -53.543
  H      401.238    -292.564     -55.767
  H      402.138    -294.728     -56.654
  H      400.649    -294.995     -57.553
  P      399.706    -295.734     -53.120
  C      397.303    -296.018     -52.298
  O      398.403    -295.139     -52.403
  O      400.757    -295.843     -51.915
  O      399.515    -297.073     -53.765
  H      400.670    -296.713     -51.475
  H      396.400    -295.439     -52.082
  H      397.470    -296.725     -51.477
  H      397.150    -296.576     -53.231
  H      402.275    -292.661     -62.423
  H      401.079    -292.781     -61.155
  H      401.551    -294.207     -62.049

 3  4  5  6  7  8  9  10  11  12  23  26  30  31 0
 6-311+G(2d,p)
 ****
 33  35  36  37  38 0
 6-311+G(2d,p)
 ****
 1  2  13  14  15  16  17  18  19  20  21  22  24  25 0
 3-21G
 ****
 27  28  29  32  34  39  40  41  42  43  44  45  46  47  48  49 0
 3-21G
 ****


