%nproc=1
%NoSave
%Mem=1900MB
#P OB98/GEN NMR

erre ene a

0 1
  C     -103.836      91.152      72.715
  O     -104.636      90.150      73.314
  H     -102.805      90.788      72.661
  H     -103.854      92.065      73.315
  H     -104.185      91.364      71.701
  P     -106.192      90.453      73.548
  C     -106.782      89.634      71.169
  O     -106.820      90.715      72.094
  C     -108.201      89.179      70.828
  O     -108.929      90.245      70.189
  C     -108.264      87.982      69.879
  O     -108.070      86.771      70.590
  C     -109.682      88.126      69.346
  O     -110.621      87.661      70.337
  C     -109.804      89.654      69.184
  N     -111.277      90.400      64.380
  C     -111.906      89.718      65.404
  N     -113.081      89.126      65.098
  N     -111.423      89.616      66.617
  C     -110.208      90.198      66.761
  C     -109.477      90.885      65.817
  C     -110.054      91.049      64.499
  O     -109.537      91.666      63.569
  N     -108.245      91.253      66.305
  C     -108.257      90.834      67.557
  N     -109.423      90.177      67.881
  O     -106.510      91.523      74.547
  O     -106.813      89.037      73.966
  H     -111.504      87.665      69.921
  H     -106.815      88.925      74.935
  H     -111.691      90.438      63.466
  H     -107.453      90.977      68.271
  H     -110.822      90.009      69.383
  H     -109.857      87.544      68.439
  H     -113.429      89.043      64.152
  H     -107.560      88.092      69.048
  H     -113.529      88.574      65.819
  H     -108.719      88.957      71.774
  H     -106.221      88.818      71.639
  H     -106.262      89.932      70.254
  P     -107.524      85.446      69.857
  C     -105.007      86.019      70.081
  O     -106.117      85.870      69.209
  O     -108.483      84.817      68.907
  O     -107.062      84.494      71.054
  H     -107.806      83.955      71.425
  H     -104.144      86.302      69.515
  H     -104.818      85.091      70.580
  H     -105.222      86.776      70.806

 6  7  8  9  10  11  12  13  14  15  26  29  33  34 0
 6-311+G(2d,p)
 ****
 36  38  39  40  41 0
 6-311+G(2d,p)
 ****
 1  2  3  4  5  16  17  18  19  20  21  22  23  24  25 0
 3-21G
 ****
 27  28  30  31  32  35  37  42  43  44  45  46  47 0
 3-21G
 ****
 48  49 0
 3-21G
 ****


