%nproc=1
%NoSave
%Mem=1900MB
#P OB98/GEN NMR

erre ene a

0 1
  C     -157.629      91.225     172.727
  O     -158.823      91.582     172.064
  H     -157.873      90.520     173.527
  H     -157.163      92.108     173.171
  H     -156.930      90.743     172.037
  P     -158.737      92.508     170.757
  C     -158.008      94.560     172.132
  O     -157.676      93.666     171.078
  C     -158.797      95.744     171.580
  O     -159.376      96.509     172.660
  C     -157.954      96.730     170.778
  O     -157.659      96.212     169.496
  C     -158.862      97.949     170.792
  O     -159.912      97.824     169.820
  C     -159.442      97.887     172.227
  N     -158.742      98.771     173.161
  C     -158.946     100.135     172.985
  O     -159.663     100.601     172.103
  N     -158.254     100.957     173.838
  C     -157.334     100.552     174.762
  O     -156.580     101.325     175.348
  C     -157.217      99.099     174.954
  C     -157.903      98.287     174.147
  O     -160.041      92.978     170.207
  O     -157.952      91.591     169.701
  H     -158.594      91.200     169.076
  H     -159.478      97.622     168.969
  H     -158.358     101.949     173.688
  H     -156.544      98.738     175.722
  H     -157.809      97.211     174.250
  H     -160.503      98.168     172.222
  H     -158.325      98.871     170.566
  H     -157.034      96.968     171.324
  H     -159.621      95.350     170.968
  H     -157.078      94.924     172.587
  H     -158.588      94.024     172.889
  P     -156.178      96.291     168.893
  C     -156.541      98.156     167.173
  O     -155.923      97.794     168.400
  O     -155.851      95.243     167.881
  O     -155.224      96.165     170.174
  H     -154.581      95.445     170.022
  H     -156.305      99.174     166.942
  H     -157.602      98.047     167.262
  H     -156.181      97.520     166.391

 6  7  8  9  10  11  12  13  14  15  16  27  31  32  33  34  35 0
 6-311+G(2d,p)
 ****
 36  37 0
 6-311+G(2d,p)
 ****
 1  2  3  4  5  17  18  19  20  21  22  23  24  25 0
 3-21G
 ****
 26  28  29  30  38  39  40  41  42  43  44  45 0
 3-21G
 ****


