%nproc=1
%NoSave
%Mem=1900MB
#P OB98/GEN NMR

erre ene a

0 1
  C     -134.071    -116.134    -157.172
  O     -134.828    -115.583    -158.229
  H     -134.389    -117.169    -157.017
  H     -134.245    -115.575    -156.249
  H     -133.004    -116.129    -157.414
  P     -134.470    -114.109    -158.752
  C     -134.514    -111.766    -157.682
  O     -135.062    -113.078    -157.675
  C     -134.743    -111.101    -156.327
  O     -134.193    -111.917    -155.268
  C     -134.077    -109.735    -156.187
  O     -134.798    -108.748    -156.896
  C     -134.075    -109.579    -154.674
  O     -135.366    -109.166    -154.198
  C     -133.765    -111.022    -154.214
  N     -132.351    -111.222    -153.893
  C     -132.003    -111.112    -152.551
  O     -132.815    -110.854    -151.664
  N     -130.670    -111.260    -152.266
  C     -129.670    -111.414    -153.184
  O     -128.478    -111.324    -152.906
  C     -130.105    -111.604    -154.574
  C     -131.403    -111.485    -154.866
  O     -134.828    -113.820    -160.171
  O     -132.888    -114.003    -158.512
  H     -132.423    -114.146    -159.362
  H     -135.556    -108.306    -154.622
  H     -130.401    -111.132    -151.301
  H     -129.346    -111.791    -155.326
  H     -131.743    -111.590    -155.890
  H     -134.356    -111.276    -153.324
  H     -133.355    -108.834    -154.333
  H     -133.039    -109.785    -156.538
  H     -135.827    -111.022    -156.164
  H     -135.013    -111.181    -158.463
  H     -133.444    -111.824    -157.909
  P     -134.061    -107.477    -157.535
  C     -133.575    -105.065    -156.818
  O     -133.851    -106.389    -156.379
  O     -134.685    -106.945    -158.782
  O     -132.568    -107.994    -157.818
  H     -132.343    -107.818    -158.752
  H     -133.453    -104.426    -155.969
  H     -134.388    -104.711    -157.417
  H     -132.676    -105.062    -157.398

 6  7  8  9  10  11  12  13  14  15  16  27  31  32  33  34  35 0
 6-311+G(2d,p)
 ****
 36  37 0
 6-311+G(2d,p)
 ****
 1  2  3  4  5  17  18  19  20  21  22  23  24  25 0
 3-21G
 ****
 26  28  29  30  38  39  40  41  42  43  44  45 0
 3-21G
 ****


