%nproc=1
%NoSave
%Mem=1900MB
#P OB98/GEN NMR

erre ene a

0 1
  C       11.903    -100.215     -28.430
  O       13.309    -100.295     -28.214
  P       14.294    -101.308     -28.951
  C       15.584    -102.304     -26.887
  O       15.604    -101.492     -28.053
  C       16.973    -102.370     -26.235
  O       17.874    -103.091     -27.129
  C       17.580    -100.982     -26.005
  O       18.235    -100.848     -24.748
  C       18.423    -100.769     -27.251
  O       19.422     -99.774     -27.095
  C       18.921    -102.182     -27.543
  N       22.550    -102.049     -31.128
  C       22.593    -101.601     -29.824
  N       23.744    -101.026     -29.418
  N       21.589    -101.691     -28.994
  C       20.473    -102.215     -29.547
  C       20.303    -102.680     -30.830
  C       21.437    -102.622     -31.727
  O       21.459    -103.024     -32.887
  N       19.030    -103.151     -31.027
  C       18.426    -102.951     -29.873
  N       19.265    -102.391     -28.937
  O       14.506    -101.068     -30.408
  O       13.557    -102.735     -28.799
  H       19.750     -99.538     -27.983
  H       13.789    -103.249     -29.599
  H       23.361    -101.975     -31.718
  H       17.396    -103.203     -29.655
  H       19.820    -102.427     -26.973
  H       17.752    -100.427     -28.049
  H       24.509    -100.812     -30.039
  H       16.797    -100.217     -25.967
  H       23.694    -100.503     -28.542
  H       16.898    -102.936     -25.302
  H       15.281    -103.303     -27.221
  H       14.832    -101.950     -26.181
  P       17.675    -100.213     -23.394
  C       20.044     -99.546     -22.676
  O       18.851    -100.211     -22.308
  O       16.657    -101.302     -22.815
  O       16.986     -98.899     -23.560
  H       15.758    -100.920     -22.767
  H       20.838     -99.839     -21.984
  H       19.897     -98.464     -22.609
  H       20.341     -99.816     -23.693
  H       11.489     -99.451     -27.806
  H       11.451    -101.155     -28.190
  H       11.713     -99.979     -29.456

 3  4  5  6  7  8  9  10  11  12  23  26  30  31 0
 6-311+G(2d,p)
 ****
 33  35  36  37  38 0
 6-311+G(2d,p)
 ****
 1  2  13  14  15  16  17  18  19  20  21  22  24  25 0
 3-21G
 ****
 27  28  29  32  34  39  40  41  42  43  44  45  46  47  48  49 0
 3-21G
 ****


