%nproc=1
%NoSave
%Mem=1900MB
#P OB98/GEN NMR

erre ene a

0 1
  C     -479.057     660.566     258.794
  O     -478.848     660.869     260.164
  H     -478.599     661.353     258.190
  H     -480.125     660.522     258.563
  H     -478.589     659.613     258.548
  P     -479.667     660.023     261.257
  C     -477.812     658.252     261.585
  O     -479.129     658.508     261.113
  C     -477.825     657.285     262.771
  O     -478.516     656.066     262.425
  C     -476.439     656.836     263.221
  O     -475.645     657.853     263.781
  C     -476.769     655.602     264.048
  O     -477.156     655.928     265.381
  C     -477.978     655.017     263.262
  N     -477.615     653.835     262.487
  C     -477.495     652.652     263.204
  O     -477.651     652.571     264.428
  N     -477.153     651.551     262.470
  C     -476.881     651.524     261.149
  O     -476.556     650.497     260.543
  C     -476.988     652.813     260.445
  C     -477.351     653.901     261.133
  O     -481.164     660.148     261.195
  O     -479.040     660.491     262.651
  H     -477.898     656.557     265.317
  H     -479.619     660.229     263.411
  H     -477.075     650.678     262.979
  H     -476.767     652.837     259.381
  H     -477.434     654.856     260.646
  H     -478.778     654.741     263.960
  H     -475.916     654.920     264.116
  H     -475.892     656.480     262.333
  H     -478.368     657.760     263.590
  H     -477.379     659.214     261.905
  H     -477.205     657.844     260.766
  P     -474.052     657.801     263.829
  C     -473.578     659.132     261.621
  O     -473.488     657.897     262.326
  O     -473.434     656.796     264.749
  O     -473.697     659.271     264.407
  H     -472.906     659.176     264.965
  H     -473.158     659.016     260.644
  H     -473.038     659.887     262.154
  H     -474.605     659.420     261.536

 6  7  8  9  10  11  12  13  14  15  16  26  31  32  33  34  35 0
 6-311+G(2d,p)
 ****
 36  37 0
 6-311+G(2d,p)
 ****
 1  2  3  4  5  17  18  19  20  21  22  23  24  25 0
 3-21G
 ****
 27  28  29  30  38  39  40  41  42  43  44  45 0
 3-21G
 ****


