%nproc=1
%NoSave
%Mem=1900MB
#P OB98/GEN NMR

erre ene a

0 1
  C      104.638     103.899      22.702
  O      104.285     102.547      22.496
  H      104.791     104.375      21.730
  H      105.567     103.963      23.274
  H      103.838     104.426      23.231
  P      103.974     101.676      23.806
  C      101.412     102.088      23.636
  O      102.598     102.243      24.406
  C      100.192     102.138      24.551
  O       98.994     102.255      23.750
  C       99.996     100.890      25.403
  O      100.846     100.881      26.536
  C       98.518     101.000      25.753
  O       98.305     101.866      26.874
  C       97.922     101.627      24.486
  N       93.394      99.618      23.288
  C       93.743     100.632      24.110
  N       94.977     101.120      24.360
  C       95.901     100.452      23.649
  C       95.696      99.395      22.780
  C       94.368      98.975      22.603
  N       94.015      97.921      21.795
  N       96.899      98.943      22.275
  C       97.812      99.719      22.822
  N       97.254     100.647      23.654
  O      105.080     102.187      24.846
  O      104.025     100.197      23.615
  H       97.358     102.105      26.866
  H      105.852     101.592      24.820
  H       92.925     101.112      24.638
  H       98.880      99.643      22.655
  H       97.188     102.409      24.717
  H       98.097     100.027      26.010
  H      100.150      99.989      24.796
  H      100.267     103.032      25.183
  H      101.438     101.120      23.124
  H      101.367     102.886      22.888
  H       93.045      97.660      21.735
  H       94.744      97.368      21.364
  P      100.736      99.660      27.565
  C      102.445      98.383      26.079
  O      101.226      98.336      26.802
  O       99.158      99.449      27.717
  O      101.398      99.892      28.881
  H       98.837      99.859      28.542
  H      102.631      97.429      25.631
  H      103.246      98.626      26.746
  H      102.378      99.129      25.315

 6  7  8  9  10  11  12  13  14  15  25  28  32  33  34  35 0
 6-311+G(2d,p)
 ****
 36  37  40 0
 6-311+G(2d,p)
 ****
 1  2  3  4  5  16  17  18  19  20  21  22  23  24 0
 3-21G
 ****
 26  27  29  30  31  38  39 41  42  43  44  45  46  47  48 0
 3-21G
 ****


