%nproc=1
%NoSave
%Mem=1900MB
#P OB98/GEN NMR

erre ene a

0 1
  C     -203.401     -92.878    -261.504
  O     -204.171     -92.227    -262.501
  P     -204.841     -90.817    -262.142
  C     -202.762     -89.468    -262.924
  O     -203.658     -89.764    -261.861
  C     -201.835     -88.314    -262.542
  O     -200.804     -88.164    -263.556
  C     -202.553     -86.965    -262.419
  O     -201.920     -86.186    -261.390
  C     -202.263     -86.286    -263.741
  O     -202.368     -84.866    -263.637
  C     -200.846     -86.795    -264.020
  N     -198.037     -84.361    -267.442
  C     -197.941     -84.356    -266.065
  N     -197.027     -83.520    -265.529
  N     -198.671     -85.107    -265.284
  C     -199.550     -85.889    -265.961
  C     -199.725     -85.993    -267.324
  C     -198.917     -85.148    -268.173
  O     -198.973     -85.085    -269.395
  N     -200.684     -86.920    -267.635
  C     -201.123     -87.349    -266.469
  N     -200.491     -86.727    -265.422
  O     -205.462     -91.077    -260.690
  O     -205.890     -90.362    -263.100
  H     -201.929     -84.492    -264.425
  H     -206.433     -91.168    -260.757
  H     -197.456     -83.755    -268.000
  H     -201.904     -88.082    -266.322
  H     -200.097     -86.234    -263.454
  H     -202.972     -86.631    -264.501
  H     -196.482     -82.865    -266.073
  H     -203.624     -87.038    -262.211
  H     -196.968     -83.461    -264.520
  H     -201.322     -88.567    -261.608
  H     -203.337     -89.186    -263.806
  H     -202.175     -90.361    -263.166
  P     -202.820     -85.027    -260.735
  C     -203.056     -86.625    -258.695
  O     -203.690     -85.741    -259.598
  O     -203.888     -84.697    -261.882
  O     -202.050     -83.820    -260.309
  H     -204.216     -83.782    -261.783
  H     -203.133     -86.219    -257.684
  H     -202.001     -86.779    -258.938
  H     -203.569     -87.593    -258.728
  H     -203.023     -93.801    -261.891
  H     -204.016     -93.075    -260.650
  H     -202.584     -92.250    -261.218

 3  4  5  6  7  8  9  10  11  12  23  26  30  31 0
 6-311+G(2d,p)
 ****
 33  35  36  37  38 0
 6-311+G(2d,p)
 ****
 1  2  13  14  15  16  17  18  19  20  21  22  24  25 0
 3-21G
 ****
 27  28  29  32  34  39  40  41  42  43  44  45  46  47  48  49 0
 3-21G
 ****


