%nproc=1
%NoSave
%Mem=1900MB
#P OB98/GEN NMR

erre ene a

0 1
  C     -137.735    -169.535    -354.847
  O     -138.278    -170.214    -355.961
  H     -136.647    -169.501    -354.951
  H     -137.982    -170.075    -353.927
  H     -138.118    -168.510    -354.792
  P     -139.875    -170.197    -356.105
  C     -139.705    -172.785    -355.953
  O     -140.398    -171.613    -355.552
  C     -139.411    -173.664    -354.739
  O     -138.606    -172.940    -353.780
  C     -140.655    -174.129    -353.986
  O     -141.242    -175.272    -354.598
  C     -140.047    -174.481    -352.637
  O     -139.369    -175.751    -352.722
  C     -139.028    -173.347    -352.447
  N     -137.994    -168.682    -350.745
  C     -137.190    -169.583    -351.415
  N     -135.918    -169.188    -351.664
  N     -137.582    -170.769    -351.806
  C     -138.872    -171.034    -351.482
  C     -139.772    -170.225    -350.826
  C     -139.323    -168.916    -350.402
  O     -140.004    -168.075    -349.824
  N     -140.992    -170.837    -350.685
  C     -140.824    -172.017    -351.245
  N     -139.555    -172.191    -351.739
  O     -140.105    -170.312    -357.690
  O     -140.557    -168.993    -355.549
  H     -140.041    -176.441    -352.554
  H     -140.886    -169.780    -357.934
  H     -137.636    -167.792    -350.456
  H     -141.588    -172.780    -351.320
  H     -138.136    -173.674    -351.904
  H     -140.795    -174.571    -351.851
  H     -135.537    -168.311    -351.343
  H     -141.378    -173.315    -353.861
  H     -135.321    -169.815    -352.184
  H     -138.818    -174.526    -355.081
  H     -138.762    -172.499    -356.433
  H     -140.322    -173.335    -356.679
  P     -142.734    -175.119    -355.178
  C     -143.319    -177.007    -353.496
  O     -143.699    -175.763    -354.067
  O     -142.770    -176.191    -356.369
  O     -143.089    -173.747    -355.646
  H     -143.461    -175.951    -357.017
  H     -144.053    -177.309    -352.778
  H     -142.370    -176.903    -353.014
  H     -143.249    -177.746    -354.266

 6  7  8  9  10  11  12  13  14  15  26  29  33  34 0
 6-311+G(2d,p)
 ****
 36  38  39  40  41 0
 6-311+G(2d,p)
 ****
 1  2  3  4  5  16  17  18  19  20  21  22  23  24  25 0
 3-21G
 ****
 27  28  30  31  32  35  37  42  43  44  45  46  47 0
 3-21G
 ****
 48  49 0
 3-21G
 ****


