%nproc=1
%NoSave
%Mem=1900MB
#P OB98/GEN NMR

erre ene a

0 1
  C      207.214     140.208     270.153
  O      207.668     140.834     271.338
  H      207.220     140.919     269.322
  H      207.888     139.379     269.911
  H      206.203     139.813     270.298
  P      206.832     142.106     271.846
  C      205.742     140.606     273.673
  O      205.543     141.493     272.583
  C      204.421     139.934     274.025
  O      204.641     138.878     274.990
  C      203.404     140.871     274.663
  O      202.696     141.639     273.703
  C      202.492     139.872     275.353
  O      201.627     139.249     274.384
  C      203.504     138.849     275.892
  N      202.611     138.126     280.882
  C      202.000     137.645     279.779
  N      202.315     137.868     278.484
  C      203.384     138.672     278.385
  C      204.112     139.237     279.422
  C      203.684     138.937     280.729
  N      204.283     139.451     281.855
  N      205.133     140.024     278.926
  C      205.027     139.925     277.617
  N      203.966     139.146     277.241
  O      206.220     142.723     270.502
  O      207.592     143.105     272.655
  H      201.020     138.668     274.875
  H      205.881     143.623     270.666
  H      201.148     136.997     279.957
  H      205.685     140.403     276.902
  H      203.110     137.826     275.903
  H      201.851     140.334     276.107
  H      203.870     141.514     275.420
  H      204.018     139.472     273.114
  H      206.107     141.177     274.536
  H      203.815     139.300     282.735
  H      204.985     140.170     281.748
  H      206.490     139.856     273.399
  P      201.638     142.718     274.255
  C      203.561     144.361     274.843
  O      202.432     143.632     275.307
  O      200.678     141.838     275.182
  O      200.888     143.451     273.191
  H      199.766     142.190     275.172
  H      203.982     144.919     275.653
  H      203.258     145.032     274.067
  H      204.292     143.680     274.460

 6  7  8  9  10  11  12  13  14  15  25  28  32  33  34  35 0
 6-311+G(2d,p)
 ****
 36  39  40 0
 6-311+G(2d,p)
 ****
 1  2  3  4  5  16  17  18  19  20  21  22  23  24 0
 3-21G
 ****
 26  27  29  30  31  37  38  41  42  43  44  45  46  47 0
 3-21G
 ****
 48 0
 3-21G
 ****


