%nproc=1
%NoSave
%Mem=1900MB
#P OB98/GEN NMR

erre ene a

0 1
  C       34.938      38.933     -21.007
  O       34.772      40.336     -20.968
  H       34.690      38.551     -22.000
  H       35.983      38.694     -20.790
  H       34.303      38.456     -20.255
  P       33.307      40.900     -21.297
  C       32.692      40.066     -18.910
  O       32.325      40.137     -20.281
  C       31.432      39.995     -18.055
  O       31.784      39.998     -16.652
  C       30.489      41.177     -18.248
  O       29.658      41.029     -19.387
  C       29.682      41.108     -16.964
  O       28.712      40.050     -17.054
  C       30.767      40.751     -15.936
  N       32.120      42.914     -11.498
  C       31.570      41.714     -11.786
  N       31.261      41.205     -12.995
  C       31.584      42.066     -13.972
  C       32.156      43.321     -13.832
  C       32.424      43.747     -12.521
  N       32.954      44.981     -12.220
  N       32.320      43.919     -15.066
  C       31.872      43.033     -15.932
  N       31.387      41.911     -15.317
  O       32.950      40.234     -22.708
  O       33.163      42.385     -21.298
  H       28.051      40.325     -17.717
  H       32.181      40.680     -23.110
  H       31.347      41.082     -10.931
  H       31.867      43.161     -17.006
  H       30.389      40.115     -15.127
  H       29.134      42.031     -16.760
  H       31.036      42.126     -18.276
  H       30.924      39.046     -18.268
  H       33.265      40.962     -18.648
  H       32.970      45.252     -11.250
  H       33.046      45.662     -12.959
  H       33.312      39.180     -18.744
  P       28.940      42.349     -19.955
  C       30.180      42.111     -22.226
  O       29.905      42.933     -21.097
  O       29.112      43.394     -18.757
  O       27.511      42.161     -20.343
  H       28.356      44.010     -18.722
  H       30.832      42.631     -22.896
  H       29.265      41.878     -22.729
  H       30.650      41.206     -21.902

 6  7  8  9  10  11  12  13  14  15  25  28  32  33  34  35 0
 6-311+G(2d,p)
 ****
 36  39  40 0
 6-311+G(2d,p)
 ****
 1  2  3  4  5  16  17  18  19  20  21  22  23  24 0
 3-21G
 ****
 26  27  29  30  31  37  38  41  42  43  44  45  46  47 0
 3-21G
 ****
 48 0
 3-21G
 ****


