%nproc=1
%NoSave
%Mem=1900MB
#P OB98/GEN NMR

erre ene a

0 1
  C      -55.811    1199.490    -474.958
  O      -55.494    1198.248    -474.352
  H      -56.766    1199.390    -475.473
  H      -55.040    1199.760    -475.684
  H      -55.904    1200.278    -474.200
  P      -54.207    1198.161    -473.397
  C      -54.902    1195.679    -473.349
  O      -54.264    1196.744    -472.650
  C      -54.490    1194.342    -472.727
  O      -53.074    1194.116    -472.918
  C      -54.724    1194.261    -471.225
  O      -56.095    1194.053    -470.934
  C      -53.811    1193.100    -470.847
  O      -54.449    1191.835    -471.131
  C      -52.609    1193.329    -471.787
  N      -51.488    1193.996    -471.115
  C      -50.656    1193.188    -470.342
  O      -50.845    1191.972    -470.205
  N      -49.607    1193.818    -469.732
  C      -49.377    1195.167    -469.718
  O      -48.480    1195.686    -469.076
  C      -50.311    1195.976    -470.517
  C      -51.296    1195.354    -471.174
  O      -53.990    1199.337    -472.502
  O      -52.987    1197.976    -474.424
  H      -55.166    1191.738    -470.474
  H      -52.494    1198.815    -474.501
  H      -48.997    1193.238    -469.161
  H      -50.144    1197.052    -470.542
  H      -51.989    1195.947    -471.764
  H      -52.252    1192.379    -472.197
  H      -53.553    1193.097    -469.788
  H      -54.357    1195.169    -470.731
  H      -55.022    1193.529    -473.251
  H      -54.583    1195.704    -474.393
  H      -55.992    1195.812    -473.300
  P      -56.759    1194.769    -469.659
  C      -58.350    1192.792    -469.227
  O      -58.237    1194.195    -469.487
  O      -56.637    1196.263    -469.629
  O      -55.977    1194.127    -468.410
  H      -55.502    1194.838    -467.918
  H      -59.383    1192.529    -469.132
  H      -57.836    1192.555    -468.319
  H      -57.915    1192.243    -470.036

 6  7  8  9  10  11  12  13  14  15  16  26  31  32  33  34  35 0
 6-311+G(2d,p)
 ****
 36  37 0
 6-311+G(2d,p)
 ****
 1  2  3  4  5  17  18  19  20  21  22  23  24  25 0
 3-21G
 ****
 27  28  29  30  38  39  40  41  42  43  44  45 0
 3-21G
 ****


