%nproc=1
%NoSave
%Mem=1900MB
#P OB98/GEN NMR

erre ene a

0 1
  C     -404.740      17.651     826.762
  O     -404.605      16.284     827.153
  P     -405.815      15.278     826.833
  C     -404.410      13.431     825.658
  O     -405.245      13.786     826.750
  C     -403.177      12.661     826.138
  O     -402.264      13.533     826.866
  C     -403.494      11.519     827.093
  O     -403.886      10.352     826.394
  C     -402.126      11.303     827.761
  O     -401.284      10.541     826.892
  C     -401.599      12.742     827.880
  N     -399.614      13.772     832.506
  C     -399.123      13.099     831.428
  N     -399.711      12.858     830.236
  C     -400.956      13.401     830.218
  C     -401.588      14.092     831.221
  C     -400.865      14.274     832.420
  N     -401.393      14.959     833.497
  N     -402.861      14.467     830.832
  C     -402.975      14.034     829.594
  N     -401.846      13.358     829.181
  O     -406.159      15.616     825.302
  O     -407.006      15.464     827.725
  H     -400.483      10.301     827.403
  H     -407.133      15.532     825.159
  H     -398.110      12.726     831.560
  H     -403.846      14.159     828.963
  H     -400.513      12.808     827.690
  H     -402.203      10.769     828.702
  H     -404.227      11.833     827.859
  H     -402.656      12.273     825.255
  H     -404.106      14.331     825.096
  H     -400.802      15.064     834.314
  H     -402.321      15.364     833.436
  H     -404.993      12.816     824.948
  P     -405.089       9.496     827.030
  C     -406.560       9.554     824.870
  O     -405.794       8.771     825.777
  O     -406.145      10.632     827.461
  O     -404.702       8.618     828.167
  H     -406.648      10.326     828.247
  H     -406.707       8.972     823.953
  H     -406.028      10.473     824.615
  H     -407.541       9.794     825.301
  H     -403.859      18.190     827.041
  H     -405.590      18.079     827.250
  H     -404.872      17.707     825.702

 3  4  5  6  7  8  9  10  11  12  22  25  29  30  31  32 0
 6-311+G(2d,p)
 ****
 33  36  37 0
 6-311+G(2d,p)
 ****
 1  2  13  14  15  16  17  18  19  20  21  23  24  26 0
 3-21G
 ****
 27  28  34  35  38  39  40  41  42  43  44  45  46  47  48 0
 3-21G
 ****


