%nproc=1
%NoSave
%Mem=1900MB
#P OB98/GEN NMR

erre ene a

0 1
  C      140.433     -24.691    -217.269
  O      140.667     -24.727    -218.663
  H      140.947     -23.822    -216.851
  H      140.826     -25.593    -216.790
  H      139.362     -24.598    -217.065
  P      140.084     -25.957    -219.506
  C      140.424     -28.524    -219.510
  O      140.771     -27.278    -218.911
  C      140.968     -29.688    -218.679
  O      140.798     -29.422    -217.273
  C      140.264     -31.018    -218.939
  O      140.682     -31.572    -220.173
  C      140.676     -31.796    -217.699
  O      142.020     -32.286    -217.823
  C      140.594     -30.697    -216.612
  N      139.334     -30.702    -215.874
  C      139.330     -31.421    -214.670
  O      140.344     -32.015    -214.300
  N      138.169     -31.458    -213.936
  C      137.125     -30.803    -214.338
  N      136.004     -30.878    -213.560
  C      137.098     -30.006    -215.579
  C      138.220     -30.007    -216.295
  O      140.163     -25.838    -220.996
  O      138.565     -26.084    -219.006
  H      142.180     -32.839    -217.034
  H      137.968     -25.588    -219.595
  H      136.207     -29.467    -215.872
  H      138.290     -29.445    -217.222
  H      141.416     -30.810    -215.889
  H      140.036     -32.659    -217.521
  H      139.176     -30.884    -218.919
  H      142.045     -29.767    -218.873
  H      136.079     -31.423    -212.708
  H      140.868     -28.537    -220.510
  H      135.199     -30.286    -213.687
  H      139.336     -28.612    -219.613
  P      139.705     -32.478    -221.059
  C      138.862     -34.905    -220.880
  O      139.420     -33.799    -220.186
  O      140.167     -32.735    -222.455
  O      138.303     -31.709    -220.984
  H      138.308     -30.923    -221.587
  H      138.719     -35.718    -220.199
  H      139.527     -35.208    -221.662
  H      137.920     -34.623    -221.302

 6  7  8  9  10  11  12  13  14  15  16  26  30  31  32  33  35 0
 6-311+G(2d,p)
 ****
 37  38 0
 6-311+G(2d,p)
 ****
 1  2  3  4  5  17  18  19  20  21  22  23  24  25 0
 3-21G
 ****
 27  28  29  34  36  39  40  41  42  43  44  45  46 0
 3-21G
 ****


