%nproc=1
%NoSave
%Mem=1900MB
#P OB98/GEN NMR

erre ene a

0 1
  C     -257.605     -19.420     121.875
  O     -257.721     -19.969     123.192
  P     -258.918     -19.428     124.115
  C     -260.946     -20.912     123.391
  O     -259.909     -20.678     124.327
  C     -261.598     -22.282     123.629
  O     -260.632     -23.341     123.353
  C     -262.123     -22.492     125.056
  O     -263.337     -23.255     124.944
  C     -261.032     -23.326     125.702
  O     -261.512     -24.049     126.829
  C     -260.602     -24.197     124.513
  N     -259.283     -24.796     124.705
  C     -259.249     -26.141     125.065
  O     -260.263     -26.798     125.301
  N     -258.004     -26.692     125.192
  C     -256.813     -26.028     125.080
  O     -255.728     -26.574     125.202
  C     -256.915     -24.582     124.812
  C     -258.128     -24.045     124.641
  O     -259.694     -18.470     123.100
  O     -258.439     -18.770     125.367
  H     -259.713     -18.809     122.184
  H     -262.412     -24.388     126.630
  H     -257.955     -27.674     125.424
  H     -255.996     -24.011     124.775
  H     -258.236     -22.981     124.463
  H     -261.327     -25.001     124.348
  H     -260.210     -22.680     126.030
  H     -262.326     -21.552     125.580
  H     -262.420     -22.395     122.909
  H     -260.542     -20.890     122.371
  H     -261.690     -20.105     123.458
  P     -264.710     -22.570     125.434
  C     -265.616     -20.813     123.715
  O     -265.530     -22.164     124.120
  O     -264.148     -21.163     125.962
  O     -265.454     -23.328     126.488
  H     -263.536     -20.739     125.336
  H     -266.001     -20.776     122.692
  H     -264.635     -20.333     123.732
  H     -266.302     -20.272     124.373
  H     -256.771     -19.867     121.375
  H     -257.456     -18.362     121.941
  H     -258.500     -19.621     121.325

 3  4  5  6  7  8  9  10  11  12  13  24  28  29  30  31  32 0
 6-311+G(2d,p)
 ****
 33  34 0
 6-311+G(2d,p)
 ****
 1  2  14  15  16  17  18  19  20  21  22  23  25  26  27 0
 3-21G
 ****
 35  36  37  38  39  40  41  42  43  44  45 0
 3-21G
 ****


