%nproc=1
%NoSave
%Mem=1900MB
#P OB98/GEN NMR

erre ene a

0 1
  C      229.639    -181.659     537.651
  O      228.498    -182.272     537.086
  H      229.815    -180.703     537.140
  H      230.517    -182.299     537.515
  H      229.481    -181.464     538.715
  P      227.957    -183.599     537.804
  C      229.706    -185.180     536.653
  O      228.343    -184.841     536.858
  C      229.808    -186.456     535.815
  O      229.314    -187.597     536.548
  C      228.954    -186.430     534.558
  O      229.466    -185.562     533.567
  C      229.004    -187.905     534.166
  O      230.241    -188.227     533.518
  C      228.919    -188.590     535.560
  N      227.595    -189.128     535.834
  C      227.312    -190.377     535.244
  O      228.158    -190.939     534.562
  N      226.070    -190.913     535.436
  C      225.196    -190.296     536.161
  N      223.971    -190.884     536.307
  C      225.459    -189.003     536.822
  C      226.669    -188.482     536.614
  O      226.371    -183.482     537.606
  O      228.392    -183.773     539.224
  H      230.165    -187.891     532.602
  H      226.107    -183.350     536.682
  H      224.705    -188.529     537.437
  H      226.938    -187.536     537.056
  H      229.646    -189.407     535.623
  H      228.203    -188.173     533.473
  H      227.921    -186.188     534.805
  H      230.867    -186.627     535.588
  H      223.821    -191.761     535.822
  H      230.235    -185.296     537.603
  H      223.206    -190.483     536.818
  H      230.177    -184.340     536.115
  P      228.737    -184.167     533.255
  C      227.471    -185.328     531.341
  O      228.295    -184.222     531.722
  O      229.523    -182.946     533.637
  O      227.335    -184.304     534.024
  H      226.775    -185.047     533.727
  H      227.240    -185.258     530.298
  H      226.564    -185.310     531.909
  H      227.992    -186.243     531.531

 6  7  8  9  10  11  12  13  14  15  16  26  30  31  32  33  35 0
 6-311+G(2d,p)
 ****
 37  38 0
 6-311+G(2d,p)
 ****
 1  2  3  4  5  17  18  19  20  21  22  23  24  25 0
 3-21G
 ****
 27  28  29  34  36  39  40  41  42  43  44  45  46 0
 3-21G
 ****


