%nproc=1
%NoSave
%Mem=1900MB
#P OB98/GEN NMR

erre ene a

0 1
  C     -137.194    -367.298    -421.654
  O     -138.251    -366.461    -422.115
  P     -138.296    -366.121    -423.684
  C     -137.364    -363.780    -423.058
  O     -137.249    -364.922    -423.901
  C     -135.984    -363.268    -422.659
  O     -135.124    -364.368    -422.301
  C     -135.244    -362.513    -423.754
  O     -135.657    -361.159    -423.861
  C     -133.812    -362.592    -423.256
  O     -133.605    -361.609    -422.222
  C     -133.762    -364.005    -422.647
  N     -129.544    -365.540    -425.100
  C     -129.792    -364.470    -424.320
  N     -130.947    -364.120    -423.708
  C     -131.927    -364.995    -424.008
  C     -131.828    -366.113    -424.825
  C     -130.563    -366.390    -425.377
  N     -130.304    -367.503    -426.153
  N     -133.039    -366.770    -424.892
  C     -133.848    -366.067    -424.129
  N     -133.216    -364.989    -423.566
  O     -139.721    -365.405    -423.857
  O     -138.145    -367.299    -424.588
  H     -133.942    -360.756    -422.564
  H     -140.024    -365.479    -424.781
  H     -128.948    -363.802    -424.149
  H     -134.893    -366.299    -423.957
  H     -133.169    -364.045    -421.728
  H     -133.073    -362.400    -424.036
  H     -135.320    -363.041    -424.722
  H     -136.102    -362.626    -421.772
  H     -137.920    -364.049    -422.155
  H     -129.347    -367.727    -426.357
  H     -131.014    -368.231    -426.192
  H     -137.925    -362.998    -423.597
  P     -136.484    -360.752    -425.176
  C     -134.820    -358.752    -425.294
  O     -135.512    -359.769    -425.994
  O     -137.620    -359.782    -424.610
  O     -137.047    -361.909    -425.936
  H     -138.401    -359.790    -425.191
  H     -133.994    -358.397    -425.920
  H     -134.410    -359.129    -424.353
  H     -135.494    -357.913    -425.091
  H     -137.287    -367.440    -420.598
  H     -136.253    -366.837    -421.871
  H     -137.248    -368.246    -422.148

 3  4  5  6  7  8  9  10  11  12  22  25  29  30  31  32 0
 6-311+G(2d,p)
 ****
 33  36  37 0
 6-311+G(2d,p)
 ****
 1  2  13  14  15  16  17  18  19  20  21  23  24  26 0
 3-21G
 ****
 27  28  34  35  38  39  40  41  42  43  44  45  46  47  48 0
 3-21G
 ****


