%nproc=1
%NoSave
%Mem=1900MB
#P OB98/GEN NMR

erre ene a

0 1
  C      781.367    -774.088    -895.700
  O      782.100    -772.929    -896.070
  H      781.962    -774.652    -894.970
  H      781.187    -774.712    -896.570
  H      780.413    -773.804    -895.240
  P      781.364    -771.899    -897.070
  C      781.063    -770.226    -895.120
  O      780.424    -770.971    -896.150
  C      780.055    -769.249    -894.490
  O      779.833    -768.123    -895.410
  C      778.678    -769.868    -894.180
  O      778.180    -769.251    -892.970
  C      777.823    -769.389    -895.330
  O      776.429    -769.402    -895.040
  C      778.399    -767.983    -895.540
  N      776.585    -763.878    -897.800
  C      776.869    -764.121    -896.470
  N      776.633    -763.096    -895.620
  N      777.350    -765.243    -896.030
  C      777.566    -766.155    -897.010
  C      777.324    -766.048    -898.360
  C      776.776    -764.797    -898.840
  O      776.479    -764.540    -900.000
  N      777.661    -767.202    -899.010
  C      778.107    -768.018    -898.070
  N      778.065    -767.435    -896.840
  O      780.328    -772.843    -897.840
  O      782.273    -771.169    -898.020
  H      776.234    -770.244    -894.570
  H      780.726    -773.164    -898.670
  H      776.219    -762.991    -898.100
  H      778.455    -769.034    -898.220
  H      778.055    -767.269    -894.780
  H      777.999    -770.012    -896.230
  H      776.313    -762.185    -895.890
  H      778.677    -770.948    -894.060
  H      776.867    -763.244    -894.630
  H      780.507    -768.821    -893.580
  H      781.892    -769.654    -895.540
  H      781.439    -770.907    -894.360
  P      778.859    -769.691    -891.580
  C      779.555    -767.221    -891.200
  O      779.944    -768.592    -891.190
  O      779.759    -770.955    -892.000
  O      777.877    -770.053    -890.520
  H      779.854    -771.553    -891.250
  H      780.388    -766.612    -890.918
  H      778.754    -767.073    -890.507
  H      779.231    -766.949    -892.183

 6  7  8  9  10  11  12  13  14  15  26  29  33  34 0
 6-311+G(2d,p)
 ****
 36  38  39  40  41 0
 6-311+G(2d,p)
 ****
 1  2  3  4  5  16  17  18  19  20  21  22  23  24  25 0
 3-21G
 ****
 27  28  30  31  32  35  37  42  43  44  45  46  47 0
 3-21G
 ****
 48  49 0
 3-21G
 ****


