%nproc=1
%NoSave
%Mem=1900MB
#P OB98/GEN NMR

erre ene a

0 1
  C      -11.505     202.471     157.320
  O      -11.624     203.146     156.064
  P      -10.295     203.578     155.280
  C       -9.941     201.351     154.032
  O      -10.197     202.741     153.913
  C      -10.218     200.624     152.705
  O      -11.522     201.006     152.197
  C       -9.175     200.941     151.622
  O       -8.628     199.772     151.008
  C       -9.910     201.895     150.691
  O       -9.371     201.917     149.378
  C      -11.369     201.449     150.833
  N      -12.309     202.522     150.490
  C      -13.213     202.254     149.466
  O      -13.198     201.213     148.808
  N      -14.096     203.256     149.172
  C      -14.118     204.495     149.737
  O      -14.905     205.375     149.406
  C      -13.098     204.744     150.767
  C      -12.255     203.758     151.093
  O       -9.043     203.612     156.095
  O      -10.660     205.053     154.751
  H       -8.394     201.878     149.447
  H       -9.860     205.609     154.827
  H      -14.771     203.072     148.446
  H      -13.070     205.725     151.223
  H      -11.487     203.920     151.838
  H      -11.586     200.605     150.172
  H       -9.814     202.912     151.095
  H       -8.299     201.450     152.044
  H      -10.231     199.549     152.919
  H      -10.583     200.924     154.805
  H       -8.912     201.198     154.374
  P       -7.278     199.052     151.475
  C       -7.918     198.078     153.789
  O       -7.666     197.821     152.423
  O       -6.214     199.951     152.016
  O       -6.768     198.334     150.131
  H       -5.796     198.425     150.069
  H       -7.800     197.144     154.349
  H       -8.948     198.429     153.912
  H       -7.229     198.825     154.196
  H      -12.481     202.257     157.704
  H      -10.979     203.095     158.012
  H      -10.967     201.556     157.184

 3  4  5  6  7  8  9  10  11  12  13  23  28  29  30  31  32 0
 6-311+G(2d,p)
 ****
 33  34 0
 6-311+G(2d,p)
 ****
 1  2  14  15  16  17  18  19  20  21  22  24  25  26  27 0
 3-21G
 ****
 35  36  37  38  39  40  41  42  43  44  45 0
 3-21G
 ****


