%nproc=1
%NoSave
%Mem=1900MB
#P OB98/GEN NMR

erre ene a

0 1
  C      571.298     550.163     316.265
  O      572.075     549.086     316.783
  P      573.118     549.208     317.981
  C      575.565     549.605     317.113
  O      574.312     550.155     317.508
  C      576.566     550.651     316.602
  O      576.211     551.042     315.250
  C      576.497     551.926     317.452
  O      577.201     552.009     318.676
  C      576.793     553.060     316.478
  O      578.169     553.428     316.482
  C      576.387     552.468     315.118
  N      574.358     556.246     312.310
  C      575.679     556.045     312.687
  N      576.565     557.002     312.312
  N      576.084     555.013     313.384
  C      575.077     554.189     313.767
  C      573.739     554.287     313.480
  C      573.304     555.409     312.658
  O      572.149     555.620     312.288
  N      573.020     553.281     314.060
  C      573.911     552.574     314.726
  N      575.188     553.077     314.570
  O      573.497     547.928     318.649
  O      572.325     550.105     319.069
  H      578.391     553.760     317.376
  H      572.624     549.804     319.955
  H      574.107     557.044     311.762
  H      573.709     551.697     315.322
  H      577.182     552.628     314.386
  H      576.234     553.957     316.751
  H      576.296     557.862     311.880
  H      575.430     552.058     317.733
  H      577.481     556.960     312.763
  H      577.576     550.237     316.539
  H      575.341     548.863     316.330
  H      576.004     549.043     317.944
  P      576.556     552.072     320.142
  C      576.540     554.630     320.350
  O      575.757     553.454     320.281
  O      577.820     552.302     321.095
  O      575.793     550.847     320.549
  H      577.577     552.092     322.027
  H      575.932     555.444     320.749
  H      576.906     554.894     319.349
  H      577.407     554.479     321.007
  H      570.682     549.806     315.466
  H      571.949     550.929     315.899
  H      570.679     550.562     317.041

 3  4  5  6  7  8  9  10  11  12  23  26  30  31 0
 6-311+G(2d,p)
 ****
 33  35  36  37  38 0
 6-311+G(2d,p)
 ****
 1  2  13  14  15  16  17  18  19  20  21  22  24  25 0
 3-21G
 ****
 27  28  29  32  34  39  40  41  42  43  44  45  46  47  48  49 0
 3-21G
 ****


