%nproc=1
%NoSave
%Mem=1900MB
#P OB98/GEN NMR

erre ene a

0 1
  C       62.110     417.215      25.965
  O       63.167     418.144      26.028
  H       62.511     416.243      25.675
  H       61.385     417.536      25.209
  H       61.607     417.113      26.931
  P       62.958     419.499      26.852
  C       61.691     420.431      24.805
  O       62.670     420.681      25.805
  C       61.671     421.531      23.743
  O       61.177     422.758      24.320
  C       63.068     421.835      23.194
  O       63.465     421.013      22.105
  C       62.922     423.290      22.751
  O       62.436     423.385      21.403
  C       61.890     423.854      23.734
  N       64.009     428.330      25.002
  C       63.697     427.846      23.747
  N       64.030     428.639      22.704
  N       63.131     426.683      23.544
  C       62.953     425.963      24.674
  C       63.240     426.330      25.970
  C       63.796     427.651      26.191
  O       64.076     428.131      27.283
  N       62.962     425.320      26.857
  C       62.588     424.313      26.087
  N       62.490     424.682      24.764
  O       64.435     419.849      27.373
  O       61.999     419.412      28.000
  H       62.199     424.318      21.236
  H       64.377     420.312      28.230
  H       64.417     429.246      25.095
  H       62.331     423.321      26.437
  H       61.147     424.479      23.219
  H       63.889     423.803      22.778
  H       64.542     429.501      22.797
  H       63.819     421.793      23.988
  H       63.994     428.239      21.764
  H       60.978     421.246      22.942
  H       60.727     420.392      25.319
  H       61.857     419.453      24.345
  P       64.944     420.416      22.028
  C       65.864     422.494      20.709
  O       65.699     421.094      20.797
  O       64.699     418.913      21.532
  O       65.726     420.464      23.302
  H       64.723     418.294      22.285
  H       66.394     422.735      19.811
  H       66.419     422.842      21.555
  H       64.904     422.966      20.694

 6  7  8  9  10  11  12  13  14  15  26  29  33  34 0
 6-311+G(2d,p)
 ****
 36  38  39  40  41 0
 6-311+G(2d,p)
 ****
 1  2  3  4  5  16  17  18  19  20  21  22  23  24  25 0
 3-21G
 ****
 27  28  30  31  32  35  37  42  43  44  45  46  47 0
 3-21G
 ****
 48  49 0
 3-21G
 ****


