%nproc=1
%NoSave
%Mem=1900MB
#P OB98/GEN NMR

erre ene a

0 1
  C      627.365     407.393    -843.142
  O      627.179     408.105    -841.922
  P      627.299     409.704    -842.007
  C      625.823     410.234    -839.935
  O      627.116     410.300    -840.527
  C      625.921     410.314    -838.416
  O      626.592     409.180    -837.836
  C      626.690     411.542    -837.917
  O      625.848     412.681    -837.962
  C      627.067     411.120    -836.503
  O      625.987     411.376    -835.574
  C      627.302     409.611    -836.653
  N      631.399     408.182    -834.026
  C      630.184     408.661    -833.574
  N      630.028     408.739    -832.238
  N      629.206     409.012    -834.368
  C      629.507     408.872    -835.680
  C      630.663     408.390    -836.244
  C      631.743     408.006    -835.364
  O      632.824     407.555    -835.708
  N      630.567     408.338    -837.621
  C      629.411     408.922    -837.881
  N      628.694     409.201    -836.739
  O      625.949     410.131    -842.764
  O      628.511     410.173    -842.741
  H      625.883     412.339    -835.471
  H      626.157     410.450    -843.665
  H      632.121     407.933    -833.369
  H      629.027     409.120    -838.865
  H      626.875     409.053    -835.805
  H      627.922     411.682    -836.135
  H      630.731     408.481    -831.561
  H      627.586     411.684    -838.526
  H      629.133     409.080    -831.884
  H      624.897     410.335    -838.017
  H      625.329     409.302    -840.217
  H      625.215     411.055    -840.337
  P      626.092     413.752    -839.131
  C      623.502     413.863    -839.167
  O      624.721     414.540    -839.359
  O      626.223     412.828    -840.441
  O      627.303     414.591    -838.961
  H      626.971     413.125    -840.994
  H      622.747     414.582    -838.844
  H      623.591     413.083    -838.411
  H      623.176     413.424    -840.110
  H      627.262     406.343    -842.962
  H      628.343     407.595    -843.527
  H      626.630     407.706    -843.853

 3  4  5  6  7  8  9  10  11  12  23  26  30  31 0
 6-311+G(2d,p)
 ****
 33  35  36  37  38 0
 6-311+G(2d,p)
 ****
 1  2  13  14  15  16  17  18  19  20  21  22  24  25 0
 3-21G
 ****
 27  28  29  32  34  39  40  41  42  43  44  45  46  47  48  49 0
 3-21G
 ****


