%nproc=1
%NoSave
%Mem=1900MB
#P OB98/GEN NMR

erre ene a

0 1
  C     -270.992     275.361    -180.954
  O     -272.028     274.429    -181.171
  H     -270.051     274.924    -181.302
  H     -270.907     275.573    -179.885
  H     -271.169     276.292    -181.500
  P     -273.541     274.948    -181.187
  C     -275.024     274.432    -179.137
  O     -273.986     275.246    -179.672
  C     -274.516     273.034    -178.780
  O     -273.260     273.137    -178.077
  C     -275.480     272.276    -177.861
  O     -276.499     271.561    -178.534
  C     -274.533     271.327    -177.127
  O     -274.363     270.098    -177.854
  C     -273.216     272.109    -177.075
  N     -272.643     271.338    -172.051
  C     -273.102     270.456    -173.016
  N     -273.484     269.240    -172.572
  N     -273.184     270.763    -174.285
  C     -272.861     272.048    -174.559
  C     -272.414     273.015    -173.683
  C     -272.252     272.648    -172.293
  O     -271.837     273.383    -171.405
  N     -272.221     274.220    -174.318
  C     -272.633     273.999    -175.552
  N     -272.954     272.678    -175.764
  O     -274.384     273.631    -181.543
  O     -273.836     276.044    -182.168
  H     -273.843     269.489    -177.293
  H     -275.181     273.878    -182.045
  H     -272.572     271.036    -171.094
  H     -272.680     274.749    -176.336
  H     -272.362     271.465    -177.319
  H     -274.935     271.059    -176.145
  H     -273.523     268.982    -171.602
  H     -275.922     272.954    -177.121
  H     -273.999     268.635    -173.217
  H     -274.324     272.472    -179.704
  H     -275.794     274.365    -179.907
  H     -275.470     274.911    -178.261
  P     -277.860     271.175    -177.793
  C     -278.157     268.627    -177.220
  O     -277.597     269.881    -176.895
  O     -278.774     270.615    -178.982
  O     -278.526     272.284    -177.048
  H     -279.392     271.304    -179.291
  H     -277.856     267.903    -176.492
  H     -277.815     268.324    -178.187
  H     -279.224     268.704    -177.227

 6  7  8  9  10  11  12  13  14  15  26  29  33  34 0
 6-311+G(2d,p)
 ****
 36  38  39  40  41 0
 6-311+G(2d,p)
 ****
 1  2  3  4  5  16  17  18  19  20  21  22  23  24  25 0
 3-21G
 ****
 27  28  30  31  32  35  37  42  43  44  45  46  47 0
 3-21G
 ****
 48  49 0
 3-21G
 ****


