%nproc=1
%NoSave
%Mem=1900MB
#P OB98/GEN NMR

erre ene a

0 1
  C      -41.722    -110.313     307.951
  O      -40.813    -111.259     308.472
  H      -41.256    -109.815     307.096
  H      -41.949    -109.560     308.712
  H      -42.641    -110.799     307.620
  P      -41.374    -112.247     309.610
  C      -40.405    -111.448     311.882
  O      -41.479    -111.377     310.956
  C      -39.205    -110.656     311.366
  O      -39.648    -109.427     310.733
  C      -38.208    -110.247     312.447
  O      -37.305    -111.301     312.761
  C      -37.496    -109.099     311.749
  O      -36.555    -109.621     310.790
  C      -38.658    -108.401     311.028
  N      -40.430    -103.647     310.907
  C      -39.840    -104.402     309.907
  N      -39.688    -103.798     308.708
  N      -39.428    -105.631     310.073
  C      -39.629    -106.103     311.324
  C      -40.204    -105.452     312.395
  C      -40.665    -104.097     312.201
  O      -41.216    -103.394     313.047
  N      -40.248    -106.260     313.507
  C      -39.680    -107.386     313.118
  N      -39.283    -107.338     311.799
  O      -40.133    -113.223     309.896
  O      -42.596    -113.019     309.242
  H      -36.008    -110.275     311.257
  H      -40.477    -114.118     310.092
  H      -40.721    -102.700     310.729
  H      -39.541    -108.260     313.738
  H      -38.348    -107.961     310.069
  H      -36.934    -108.468     312.437
  H      -39.943    -102.837     308.528
  H      -38.720    -109.868     313.343
  H      -39.289    -104.341     307.953
  H      -38.711    -111.261     310.592
  H      -40.116    -112.498     312.023
  H      -40.738    -111.039     312.848
  P      -36.584    -111.260     314.195
  C      -34.032    -110.772     314.108
  O      -35.350    -110.241     314.026
  O      -35.874    -112.693     314.282
  O      -37.490    -111.003     315.351
  H      -35.722    -112.928     315.217
  H      -33.321    -109.983     313.978
  H      -33.895    -111.506     313.341
  H      -33.889    -111.226     315.066

 6  7  8  9  10  11  12  13  14  15  26  29  33  34 0
 6-311+G(2d,p)
 ****
 36  38  39  40  41 0
 6-311+G(2d,p)
 ****
 1  2  3  4  5  16  17  18  19  20  21  22  23  24  25 0
 3-21G
 ****
 27  28  30  31  32  35  37  42  43  44  45  46  47 0
 3-21G
 ****
 48  49 0
 3-21G
 ****


