%nproc=1
%NoSave
%Mem=1900MB
#P OB98/GEN NMR

erre ene a

0 1
  C     -315.871     535.862    -614.206
  O     -316.503     534.583    -614.272
  P     -318.030     534.561    -614.729
  C     -317.871     532.536    -616.381
  O     -318.374     533.049    -615.153
  C     -316.870     531.413    -616.100
  O     -315.637     531.955    -615.597
  C     -317.343     530.403    -615.044
  O     -318.279     529.486    -615.592
  C     -316.028     529.779    -614.612
  O     -315.648     528.726    -615.516
  C     -315.049     530.969    -614.719
  N     -314.723     531.530    -613.416
  C     -313.688     530.912    -612.710
  O     -313.094     529.922    -613.154
  N     -313.399     531.419    -611.476
  C     -314.043     532.459    -610.867
  O     -313.749     532.852    -609.747
  C     -315.128     533.068    -611.637
  C     -315.423     532.593    -612.838
  O     -318.044     535.348    -616.129
  O     -318.989     535.161    -613.743
  H     -316.458     528.202    -615.675
  H     -318.876     535.855    -616.212
  H     -312.640     531.005    -610.976
  H     -315.671     533.898    -611.169
  H     -316.252     533.016    -613.429
  H     -314.116     530.641    -615.199
  H     -316.094     529.341    -613.610
  H     -317.776     530.967    -614.188
  H     -316.672     530.897    -617.047
  H     -317.405     533.322    -616.934
  H     -318.717     532.155    -616.972
  P     -319.248     528.736    -614.535
  C     -321.374     530.138    -615.021
  O     -320.721     528.907    -615.149
  O     -319.180     529.724    -613.290
  O     -318.806     527.339    -614.258
  H     -319.059     530.651    -613.570
  H     -320.707     530.994    -615.061
  H     -321.923     530.170    -614.045
  H     -322.134     530.245    -615.813
  H     -314.856     535.742    -613.889
  H     -316.392     536.482    -613.507
  H     -315.891     536.320    -615.173

 3  4  5  6  7  8  9  10  11  12  13  23  28  29  30  31  32 0
 6-311+G(2d,p)
 ****
 33  34 0
 6-311+G(2d,p)
 ****
 1  2  14  15  16  17  18  19  20  21  22  24  25  26 0
 3-21G
 ****
 27  35  36  37  38  39  40  41  42  43  44  45 0
 3-21G
 ****


