%nproc=1
%NoSave
%Mem=1900MB
#P OB98/GEN NMR

erre ene a

0 1
  C      257.516    -289.879     392.676
  O      256.692    -290.492     393.656
  P      255.849    -289.535     394.623
  C      257.320    -289.990     396.733
  O      256.836    -289.043     395.789
  C      258.500    -289.392     397.512
  O      259.548    -288.989     396.600
  C      258.130    -288.133     398.289
  O      257.459    -288.453     399.504
  C      259.500    -287.501     398.500
  O      260.169    -288.079     399.634
  C      260.223    -287.862     397.190
  N      260.317    -286.733     396.268
  C      261.227    -285.730     396.612
  O      261.894    -285.768     397.642
  N      261.293    -284.668     395.749
  C      260.528    -284.482     394.633
  O      260.596    -283.480     393.935
  C      259.568    -285.562     394.333
  C      259.503    -286.617     395.154
  O      254.848    -290.538     395.374
  O      255.115    -288.434     393.930
  H      260.145    -289.050     399.518
  H      253.992    -290.097     395.527
  H      261.962    -283.945     395.969
  H      258.944    -285.452     393.453
  H      258.793    -287.416     394.955
  H      261.248    -288.211     397.406
  H      259.432    -286.424     398.692
  H      257.520    -287.470     397.672
  H      258.900    -290.160     398.181
  H      257.646    -290.892     396.204
  H      256.507    -290.260     397.413
  P      256.371    -287.410     400.028
  C      258.123    -286.068     401.430
  O      257.202    -286.073     400.370
  O      256.010    -288.040     401.452
  O      255.211    -287.249     399.098
  H      256.763    -288.491     401.857
  H      258.635    -287.030     401.534
  H      257.601    -285.838     402.364
  H      258.871    -285.287     401.244
  H      258.016    -290.635     392.107
  H      258.241    -289.257     393.158
  H      256.912    -289.283     392.024

 3  4  5  6  7  8  9  10  11  12  13  23  28  29  30  31  32 0
 6-311+G(2d,p)
 ****
 33  34 0
 6-311+G(2d,p)
 ****
 1  2  14  15  16  17  18  19  20  21  22  24  25  26 0
 3-21G
 ****
 27  35  36  37  38  39  40  41  42  43  44  45 0
 3-21G
 ****


