%nproc=1
%NoSave
%Mem=1900MB
#P OB98/GEN NMR

erre ene a

0 1
  C      -71.341    -391.462    -249.840
  O      -71.706    -390.686    -248.712
  P      -72.158    -389.163    -248.953
  C      -69.626    -388.589    -248.857
  O      -70.878    -388.346    -249.481
  C      -68.873    -387.278    -248.614
  O      -67.646    -387.548    -247.879
  C      -68.482    -386.549    -249.906
  O      -68.531    -385.127    -249.681
  C      -67.026    -386.928    -250.093
  O      -66.338    -385.970    -250.896
  C      -66.554    -386.992    -248.645
  N      -61.502    -386.885    -248.443
  C      -62.406    -385.846    -248.344
  N      -61.884    -384.602    -248.265
  N      -63.699    -386.012    -248.318
  C      -64.079    -387.314    -248.406
  C      -63.275    -388.432    -248.492
  C      -61.840    -388.230    -248.538
  O      -60.987    -389.106    -248.652
  N      -64.018    -389.583    -248.536
  C      -65.272    -389.165    -248.517
  N      -65.363    -387.797    -248.475
  O      -72.363    -388.618    -247.460
  O      -73.403    -389.009    -249.761
  H      -66.438    -385.100    -250.454
  H      -73.320    -388.542    -247.265
  H      -60.510    -386.707    -248.468
  H      -66.146    -389.806    -248.554
  H      -66.345    -385.991    -248.239
  H      -66.956    -387.901    -250.591
  H      -60.898    -384.399    -248.352
  H      -69.103    -386.800    -250.773
  H      -62.526    -383.815    -248.235
  H      -69.490    -386.632    -247.975
  H      -69.027    -389.232    -249.498
  H      -69.789    -389.110    -247.902
  P      -69.795    -384.361    -250.314
  C      -68.447    -383.770    -252.459
  O      -69.585    -384.393    -251.897
  O      -69.529    -382.829    -249.924
  O      -71.120    -384.850    -249.817
  H      -70.367    -382.335    -249.887
  H      -67.830    -384.534    -252.944
  H      -67.850    -383.247    -251.710
  H      -68.776    -383.046    -253.213
  H      -71.066    -392.446    -249.522
  H      -70.511    -391.003    -250.336
  H      -72.170    -391.523    -250.514

 3  4  5  6  7  8  9  10  11  12  23  26  30  31 0
 6-311+G(2d,p)
 ****
 33  35  36  37  38 0
 6-311+G(2d,p)
 ****
 1  2  13  14  15  16  17  18  19  20  21  22  24  25 0
 3-21G
 ****
 27  28  29  32  34  39  40  41  42  43  44  45  46  47  48  49 0
 3-21G
 ****


