%nproc=1
%NoSave
%Mem=1900MB
#P OB98/GEN NMR

erre ene a

0 1
  C     -895.110     379.338     900.848
  O     -895.330     377.981     900.491
  H     -894.200     379.693     900.361
  H     -894.970     379.442     901.930
  H     -895.950     379.956     900.520
  P     -896.520     377.189     901.218
  C     -898.340     375.541     900.415
  O     -897.300     376.434     900.042
  C     -898.640     374.553     899.286
  O     -899.460     375.205     898.283
  C     -897.380     374.082     898.569
  O     -896.700     373.105     899.338
  C     -897.990     373.563     897.258
  O     -898.550     372.261     897.417
  C     -899.090     374.628     896.995
  N     -898.660     375.673     896.071
  C     -898.620     375.301     894.722
  O     -898.950     374.173     894.369
  N     -898.200     376.252     893.806
  C     -897.870     377.437     894.200
  N     -897.470     378.313     893.234
  C     -897.900     377.871     895.610
  C     -898.300     376.944     896.487
  O     -897.400     377.978     902.126
  O     -895.770     375.989     901.983
  H     -899.300     372.371     898.035
  H     -895.520     376.276     902.885
  H     -897.610     378.875     895.901
  H     -898.360     377.181     897.537
  H     -900.000     374.163     896.588
  H     -897.230     373.522     896.459
  H     -896.730     374.921     898.329
  H     -899.210     373.712     899.706
  H     -897.430     377.994     892.281
  H     -899.230     376.140     900.643
  H     -897.250     379.285     893.422
  H     -898.070     374.988     901.331
  P     -895.140     372.815     899.070
  C     -893.050     372.532     900.551
  O     -894.460     372.738     900.523
  O     -894.480     373.737     898.100
  O     -895.150     371.282     898.590
  H     -895.480     371.189     897.670
  H     -892.715     372.499     901.567
  H     -892.562     373.336     900.040
  H     -892.815     371.607     900.067

 6  7  8  9  10  11  12  13  14  15  16  26  30  31  32  33  35 0
 6-311+G(2d,p)
 ****
 37  38 0
 6-311+G(2d,p)
 ****
 1  2  3  4  5  17  18  19  20  21  22  23  24  25 0
 3-21G
 ****
 27  28  29  34  36  39  40  41  42  43  44  45  46 0
 3-21G
 ****


