%nproc=1
%NoSave
%Mem=1900MB
#P OB98/GEN NMR

erre ene a

0 1
  C     -123.690      38.034      47.384
  O     -122.942      38.266      46.208
  H     -123.750      38.966      47.952
  H     -123.210      37.276      48.007
  H     -124.705      37.717      47.128
  P     -122.567      37.021      45.271
  C     -124.702      37.068      43.831
  O     -123.296      37.274      43.864
  C     -125.345      37.892      42.713
  O     -125.126      39.300      42.993
  C     -124.778      37.588      41.322
  O     -125.849      37.652      40.376
  C     -123.805      38.728      41.105
  O     -123.567      38.955      39.729
  C     -124.483      39.885      41.844
  N     -123.513      40.912      42.224
  C     -123.334      41.965      41.319
  O     -123.986      42.004      40.272
  N     -122.379      42.912      41.583
  C     -121.624      42.793      42.630
  N     -120.671      43.744      42.811
  C     -121.758      41.684      43.598
  C     -122.715      40.790      43.336
  O     -122.794      35.666      45.857
  O     -121.020      37.260      44.927
  H     -124.421      39.120      39.274
  H     -120.458      36.812      45.588
  H     -121.101      41.625      44.452
  H     -122.877      39.937      43.986
  H     -125.259      40.347      41.220
  H     -122.843      38.486      41.577
  H     -124.287      36.612      41.264
  H     -126.431      37.728      42.740
  H     -120.600      44.472      42.109
  H     -125.112      37.379      44.798
  H     -119.998      43.735      43.566
  H     -124.918      36.005      43.684
  P     -126.779      36.372      40.102
  C     -128.513      36.341      41.986
  O     -128.266      36.688      40.626
  O     -126.213      35.076      40.581
  O     -126.949      36.356      38.507
  H     -127.062      35.434      38.204
  H     -129.523      36.588      42.239
  H     -127.843      36.884      42.620
  H     -128.358      35.291      42.120

 6  7  8  9  10  11  12  13  14  15  16  26  30  31  32  33  35 0
 6-311+G(2d,p)
 ****
 37  38 0
 6-311+G(2d,p)
 ****
 1  2  3  4  5  17  18  19  20  21  22  23  24  25 0
 3-21G
 ****
 27  28  29  34  36  39  40  41  42  43  44  45  46 0
 3-21G
 ****


