%nproc=1
%NoSave
%Mem=1900MB
#P OB98/GEN NMR

erre ene a

0 1
  C      529.856    -254.765    -583.704
  O      529.809    -253.544    -584.421
  H      528.960    -255.344    -583.940
  H      529.892    -254.587    -582.631
  H      530.731    -255.343    -584.020
  P      530.886    -252.409    -584.058
  C      529.828    -250.435    -582.763
  O      530.368    -251.757    -582.677
  C      528.580    -250.412    -583.645
  O      527.765    -251.574    -583.390
  C      527.664    -249.223    -583.377
  O      528.195    -247.983    -583.779
  C      526.332    -249.700    -583.947
  O      526.202    -249.455    -585.351
  C      526.403    -251.228    -583.700
  N      525.480    -251.647    -582.647
  C      524.189    -251.941    -583.056
  O      523.803    -251.854    -584.221
  N      523.324    -252.324    -582.068
  C      523.605    -252.385    -580.739
  O      522.773    -252.689    -579.898
  C      524.983    -252.028    -580.355
  C      525.850    -251.684    -581.309
  O      531.173    -251.408    -585.138
  O      532.173    -253.248    -583.597
  H      525.337    -249.825    -585.624
  H      532.982    -252.676    -583.598
  H      522.383    -252.555    -582.350
  H      525.240    -252.062    -579.305
  H      526.872    -251.412    -581.062
  H      526.140    -251.776    -584.616
  H      525.488    -249.219    -583.454
  H      527.516    -249.155    -582.292
  H      528.896    -250.439    -584.699
  H      530.597    -249.792    -583.212
  H      529.600    -250.066    -581.760
  P      527.689    -246.577    -583.202
  C      525.890    -245.158    -584.434
  O      526.176    -246.350    -583.697
  O      528.654    -245.436    -583.269
  O      527.477    -246.943    -581.636
  H      527.709    -246.146    -581.126
  H      524.853    -245.141    -584.696
  H      526.483    -245.138    -585.324
  H      526.120    -244.303    -583.833

 6  7  8  9  10  11  12  13  14  15  16  26  31  32  33  34  35 0
 6-311+G(2d,p)
 ****
 36  37 0
 6-311+G(2d,p)
 ****
 1  2  3  4  5  17  18  19  20  21  22  23  24  25 0
 3-21G
 ****
 27  28  29  30  38  39  40  41  42  43  44  45 0
 3-21G
 ****


