%nproc=1
%NoSave
%Mem=1900MB
#P OB98/GEN NMR

erre ene a

0 1
  C      105.508     -24.692     -11.569
  O      105.858     -24.892     -10.198
  P      106.857     -23.812      -9.557
  C      106.632     -21.889      -7.829
  O      106.101     -23.106      -8.330
  C      105.789     -21.369      -6.663
  O      104.426     -21.107      -7.046
  C      105.715     -22.339      -5.493
  O      106.897     -22.255      -4.716
  C      104.477     -21.844      -4.757
  O      104.795     -20.746      -3.877
  C      103.571     -21.367      -5.903
  N       98.789     -22.809      -5.046
  C       99.579     -21.910      -4.357
  N       99.006     -21.288      -3.306
  N      100.820     -21.643      -4.673
  C      101.262     -22.337      -5.748
  C      100.566     -23.232      -6.527
  C       99.195     -23.521      -6.165
  O       98.448     -24.292      -6.756
  N      101.331     -23.688      -7.571
  C      102.522     -23.166      -7.344
  N      102.517     -22.288      -6.288
  O      106.932     -22.670     -10.675
  O      108.208     -24.363      -9.243
  H      105.360     -20.111      -4.352
  H      107.814     -22.672     -11.092
  H       97.843     -22.983      -4.753
  H      103.409     -23.368      -7.926
  H      103.073     -20.422      -5.654
  H      104.038     -22.623      -4.129
  H       98.055     -21.443      -3.008
  H      105.551     -23.360      -5.859
  H       99.566     -20.619      -2.792
  H      106.235     -20.422      -6.332
  H      106.665     -21.140      -8.623
  H      107.668     -22.059      -7.516
  P      107.906     -23.499      -4.749
  C      109.651     -23.936      -6.619
  O      109.180     -23.062      -5.613
  O      107.148     -24.556      -5.685
  O      108.209     -24.087      -3.411
  H      107.206     -25.444      -5.288
  H      110.114     -23.343      -7.411
  H      108.842     -24.533      -7.049
  H      110.403     -24.604      -6.191
  H      104.842     -25.468     -11.884
  H      106.393     -24.715     -12.170
  H      105.027     -23.743     -11.679

 3  4  5  6  7  8  9  10  11  12  23  26  30  31 0
 6-311+G(2d,p)
 ****
 33  35  36  37  38 0
 6-311+G(2d,p)
 ****
 1  2  13  14  15  16  17  18  19  20  21  22  24  25 0
 3-21G
 ****
 27  28  29  32  34  39  40  41  42  43  44  45  46  47  48  49 0
 3-21G
 ****


