%nproc=1
%NoSave
%Mem=1900MB
#P OB98/GEN NMR

erre ene a

0 1
  C      988.804    -252.162    1166.871
  O      989.541    -251.211    1167.629
  P      991.077    -251.571    1167.986
  C      992.059    -250.938    1165.662
  O      992.008    -250.649    1167.063
  C      992.474    -249.682    1164.877
  O      991.404    -248.728    1164.829
  C      993.647    -248.923    1165.501
  O      994.893    -249.499    1165.162
  C      993.509    -247.557    1164.827
  O      994.057    -247.606    1163.498
  C      991.965    -247.395    1164.782
  N      992.075    -242.820    1166.949
  C      992.554    -243.231    1165.736
  N      993.239    -242.313    1164.997
  N      992.424    -244.456    1165.240
  C      991.731    -245.271    1166.078
  C      991.170    -244.966    1167.307
  C      991.358    -243.636    1167.819
  O      990.993    -243.217    1168.918
  N      990.545    -246.057    1167.844
  C      990.697    -247.009    1166.946
  N      991.451    -246.578    1165.873
  O      991.269    -253.042    1167.361
  O      991.393    -251.556    1169.448
  H      995.021    -247.812    1163.610
  H      992.054    -253.459    1167.746
  H      992.207    -241.868    1167.264
  H      990.303    -248.004    1167.045
  H      991.657    -246.937    1163.838
  H      994.011    -246.760    1165.374
  H      993.457    -241.380    1165.346
  H      993.528    -248.813    1166.590
  H      993.688    -242.614    1164.132
  H      992.720    -249.977    1163.858
  H      991.066    -251.273    1165.319
  H      992.787    -251.734    1165.499
  P      996.092    -249.317    1166.229
  C      995.587    -251.412    1167.739
  O      996.426    -250.793    1166.755
  O      995.355    -248.622    1167.479
  O      997.246    -248.499    1165.726
  H      995.975    -248.094    1168.000
  H      995.806    -252.456    1167.760
  H      994.530    -251.267    1167.484
  H      995.783    -250.932    1168.710
  H      987.811    -251.797    1166.709
  H      988.761    -253.088    1167.405
  H      989.285    -252.317    1165.928

 3  4  5  6  7  8  9  10  11  12  23  26  30  31 0
 6-311+G(2d,p)
 ****
 33  35  36  37  38 0
 6-311+G(2d,p)
 ****
 1  2  13  14  15  16  17  18  19  20  21  22  24  25 0
 3-21G
 ****
 27  28  29  32  34  39  40  41  42  43  44  45  46  47  48  49 0
 3-21G
 ****


