%nproc=1
%NoSave
%Mem=1900MB
#P OB98/GEN NMR

erre ene a

0 1
  C       86.918    -113.579     112.710
  O       86.993    -114.114     111.405
  H       85.878    -113.620     113.046
  H       87.242    -112.536     112.709
  H       87.533    -114.158     113.406
  P       88.437    -114.359     110.751
  C       88.754    -111.891     110.072
  O       88.632    -113.235     109.624
  C       89.508    -111.063     109.034
  O       89.763    -109.738     109.545
  C       90.872    -111.634     108.657
  O       90.734    -112.744     107.793
  C       91.526    -110.410     108.032
  O       91.082    -110.227     106.680
  C       90.997    -109.278     108.945
  N       91.956    -108.869     109.972
  C       92.554    -107.624     109.798
  O       92.338    -106.906     108.824
  N       93.431    -107.242     110.779
  C       93.821    -108.001     111.847
  O       94.653    -107.631     112.671
  C       93.182    -109.322     111.958
  C       92.294    -109.687     111.033
  O       88.719    -115.754     110.302
  O       89.451    -113.894     111.900
  H       90.147    -109.949     106.727
  H       89.800    -114.675     112.369
  H       93.884    -106.350     110.666
  H       93.470    -109.951     112.789
  H       91.815    -110.658     111.096
  H       90.743    -108.394     108.346
  H       92.613    -110.485     107.998
  H       91.430    -111.908     109.560
  H       88.868    -110.964     108.146
  H       89.307    -111.884     111.018
  H       87.752    -111.482     110.242
  P       91.771    -113.962     107.851
  C       93.484    -112.560     106.561
  O       92.783    -113.797     106.614
  O       91.156    -115.317     107.978
  O       92.691    -113.627     109.118
  H       92.460    -114.217     109.862
  H       94.127    -112.551     105.706
  H       94.069    -112.443     107.449
  H       92.782    -111.755     106.488

 6  7  8  9  10  11  12  13  14  15  16  26  31  32  33  34  35 0
 6-311+G(2d,p)
 ****
 36  37 0
 6-311+G(2d,p)
 ****
 1  2  3  4  5  17  18  19  20  21  22  23  24  25 0
 3-21G
 ****
 27  28  29  30  38  39  40  41  42  43  44  45 0
 3-21G
 ****


