%nproc=1
%NoSave
%Mem=1900MB
#P OB98/GEN NMR

erre ene a

0 1
  C      117.217    -210.681     -33.551
  O      118.362    -210.542     -34.366
  H      117.405    -210.180     -32.599
  H      117.011    -211.736     -33.357
  H      116.351    -210.213     -34.027
  P      118.372    -211.245     -35.806
  C      119.470    -213.329     -34.748
  O      118.404    -212.829     -35.549
  C      119.591    -214.847     -34.918
  O      120.028    -215.105     -36.276
  C      120.616    -215.467     -33.953
  O      120.083    -216.553     -33.202
  C      121.816    -215.735     -34.852
  O      122.656    -216.781     -34.405
  C      121.182    -215.965     -36.226
  N      122.081    -215.686     -37.345
  C      122.936    -216.708     -37.750
  O      122.982    -217.829     -37.249
  N      123.767    -216.405     -38.796
  C      123.838    -215.207     -39.446
  O      124.602    -214.996     -40.380
  C      122.932    -214.158     -38.956
  C      122.110    -214.441     -37.944
  O      119.409    -210.747     -36.758
  O      116.893    -211.002     -36.369
  H      122.132    -217.609     -34.451
  H      116.916    -210.309     -37.055
  H      124.380    -217.141     -39.109
  H      122.969    -213.194     -39.441
  H      121.424    -213.690     -37.558
  H      120.844    -216.997     -36.326
  H      122.430    -214.828     -34.889
  H      120.907    -214.745     -33.180
  H      118.599    -215.299     -34.800
  H      119.249    -213.080     -33.704
  H      120.408    -212.847     -35.041
  P      119.906    -216.576     -31.619
  C      122.515    -216.646     -31.293
  O      121.267    -216.064     -30.946
  O      119.296    -217.810     -31.046
  O      118.889    -215.356     -31.332
  H      118.364    -215.617     -30.547
  H      123.297    -216.170     -30.739
  H      122.690    -216.517     -32.341
  H      122.498    -217.690     -31.061

 6  7  8  9  10  11  12  13  14  15  16  26  31  32  33  34  35 0
 6-311+G(2d,p)
 ****
 36  37 0
 6-311+G(2d,p)
 ****
 1  2  3  4  5  17  18  19  20  21  22  23  24  25 0
 3-21G
 ****
 27  28  29  30  38  39  40  41  42  43  44  45 0
 3-21G
 ****


