%nproc=1
%NoSave
%Mem=1900MB
#P OB98/GEN NMR

erre ene a

0 1
  C      277.226      78.843    -118.955
  O      278.513      78.990    -118.389
  H      276.975      77.779    -118.984
  H      277.199      79.237    -119.974
  H      276.483      79.359    -118.338
  P      279.213      80.432    -118.472
  C      281.392      79.306    -119.281
  O      280.387      80.277    -119.561
  C      281.842      78.600    -120.564
  O      280.723      78.429    -121.455
  C      282.873      79.381    -121.364
  O      284.140      79.465    -120.747
  C      282.749      78.763    -122.749
  O      283.543      77.592    -122.920
  C      281.248      78.386    -122.798
  N      280.498      79.250    -123.702
  C      280.603      78.945    -125.056
  O      281.295      78.025    -125.494
  N      279.914      79.764    -125.906
  C      279.190      80.862    -125.545
  O      278.628      81.582    -126.361
  C      279.135      81.150    -124.104
  C      279.782      80.341    -123.260
  O      279.671      81.010    -117.166
  O      278.134      81.336    -119.230
  H      284.418      77.780    -122.531
  H      278.326      82.296    -119.111
  H      279.970      79.553    -126.890
  H      278.571      82.015    -123.781
  H      279.760      80.535    -122.189
  H      281.127      77.353    -123.145
  H      283.046      79.468    -123.530
  H      282.517      80.414    -121.458
  H      282.219      77.606    -120.297
  H      280.961      78.568    -118.597
  H      282.244      79.788    -118.791
  P      284.743      80.823    -120.163
  C      286.147      80.946    -122.347
  O      285.377      81.657    -121.382
  O      285.513      80.724    -118.887
  O      283.396      81.657    -119.848
  H      283.565      82.198    -119.053
  H      286.501      81.627    -123.092
  H      285.537      80.197    -122.808
  H      286.981      80.480    -121.865

 6  7  8  9  10  11  12  13  14  15  16  26  31  32  33  34  35 0
 6-311+G(2d,p)
 ****
 36  37 0
 6-311+G(2d,p)
 ****
 1  2  3  4  5  17  18  19  20  21  22  23  24  25 0
 3-21G
 ****
 27  28  29  30  38  39  40  41  42  43  44  45 0
 3-21G
 ****


