%nproc=1
%NoSave
%Mem=1900MB
#P OB98/GEN NMR

erre ene a

0 1
  C      327.860      67.834    -173.733
  O      327.053      66.671    -173.984
  P      327.635      65.220    -173.607
  C      327.225      63.629    -175.645
  O      326.780      64.106    -174.382
  C      326.064      62.982    -176.402
  O      325.573      61.823    -175.688
  C      324.849      63.881    -176.580
  O      325.046      64.843    -177.605
  C      323.763      62.859    -176.909
  O      323.794      62.510    -178.303
  C      324.182      61.659    -176.036
  N      323.345      61.516    -174.846
  C      323.727      60.534    -173.934
  O      324.673      59.773    -174.127
  N      322.956      60.436    -172.810
  C      321.829      61.160    -172.540
  O      321.170      61.010    -171.518
  C      321.432      62.126    -173.577
  C      322.191      62.255    -174.666
  O      327.123      65.037    -172.096
  O      329.119      65.076    -173.680
  H      323.458      63.287    -178.791
  H      327.736      64.451    -171.613
  H      323.233      59.751    -172.123
  H      320.528      62.703    -173.412
  H      321.912      62.962    -175.436
  H      324.122      60.732    -176.618
  H      322.760      63.236    -176.697
  H      324.605      64.367    -175.630
  H      326.438      62.644    -177.379
  H      328.013      62.882    -175.490
  H      327.642      64.464    -176.214
  P      325.989      66.092    -177.241
  C      324.401      67.577    -178.691
  O      325.718      67.172    -178.392
  O      327.436      65.489    -177.572
  O      325.819      66.569    -175.836
  H      327.411      64.860    -178.317
  H      323.766      67.577    -177.796
  H      323.974      66.899    -179.435
  H      324.424      68.591    -179.102
  H      327.328      68.710    -174.039
  H      328.773      67.760    -174.285
  H      328.079      67.897    -172.688

 3  4  5  6  7  8  9  10  11  12  13  23  28  29  30  31  32 0
 6-311+G(2d,p)
 ****
 33  34 0
 6-311+G(2d,p)
 ****
 1  2  14  15  16  17  18  19  20  21  22  24  25  26 0
 3-21G
 ****
 27  35  36  37  38  39  40  41  42  43  44  45 0
 3-21G
 ****


