%nproc=1
%NoSave
%Mem=1900MB
#P OB98/GEN NMR

erre ene a

0 1
  C      206.932    -496.569    -498.380
  O      207.994    -496.368    -499.317
  P      208.033    -495.010    -500.156
  C      210.071    -494.081    -498.882
  O      208.709    -493.875    -499.245
  C      211.006    -493.254    -499.772
  O      210.920    -491.847    -499.471
  C      212.470    -493.620    -499.604
  O      212.755    -494.854    -500.234
  C      213.148    -492.405    -500.213
  O      213.207    -492.505    -501.638
  C      212.199    -491.258    -499.799
  N      212.713    -490.448    -498.698
  C      212.147    -489.177    -498.563
  O      211.298    -488.784    -499.360
  N      212.573    -488.379    -497.527
  C      213.478    -488.808    -496.706
  N      213.857    -487.977    -495.701
  C      214.105    -490.141    -496.831
  C      213.686    -490.898    -497.842
  O      206.753    -494.614    -500.814
  O      209.172    -495.298    -501.250
  H      213.921    -493.138    -501.841
  H      208.972    -494.793    -502.060
  H      214.857    -490.453    -496.121
  H      214.094    -491.881    -497.998
  H      212.014    -490.587    -500.644
  H      214.181    -492.288    -499.855
  H      212.718    -493.686    -498.530
  H      210.701    -493.409    -500.819
  H      213.411    -487.068    -495.656
  H      210.312    -495.146    -498.973
  H      214.521    -488.236    -494.981
  H      210.197    -493.815    -497.822
  P      213.185    -496.093    -499.300
  C      210.852    -497.230    -499.246
  O      211.873    -496.577    -498.512
  O      214.054    -495.385    -498.153
  O      213.966    -497.163    -499.985
  H      214.769    -495.986    -497.867
  H      210.212    -497.776    -498.548
  H      211.274    -497.947    -499.957
  H      210.252    -496.494    -499.783
  H      207.051    -497.520    -497.905
  H      205.994    -496.542    -498.893
  H      206.957    -495.796    -497.641

 3  4  5  6  7  8  9  10  11  12  13  23  27  28  29  30  32 0
 6-311+G(2d,p)
 ****
 34  35 0
 6-311+G(2d,p)
 ****
 1  2  14  15  16  17  18  19  20  21  22  24  25  26 0
 3-21G
 ****
 31  33  36  37  38  39  40  41  42  43  44  45  46 0
 3-21G
 ****


