%nproc=1
%NoSave
%Mem=1900MB
#P OB98/GEN NMR

erre ene a

0 1
  C     -180.479    1068.838    -328.620
  O     -181.060    1070.128    -328.589
  H     -179.673    1068.799    -327.889
  H     -180.055    1068.625    -329.606
  H     -181.222    1068.068    -328.363
  P     -182.341    1070.419    -329.512
  C     -184.029    1070.781    -327.609
  O     -183.306    1071.395    -328.662
  C     -184.465    1071.810    -326.581
  O     -183.306    1072.301    -325.890
  C     -185.183    1073.029    -327.204
  O     -186.231    1073.429    -326.323
  C     -184.104    1074.094    -327.223
  O     -184.646    1075.408    -327.195
  C     -183.279    1073.743    -326.001
  N     -180.307    1077.827    -325.612
  C     -181.643    1077.672    -325.351
  N     -182.326    1078.787    -324.952
  N     -182.296    1076.529    -325.472
  C     -181.491    1075.501    -325.872
  C     -180.155    1075.535    -326.175
  C     -179.466    1076.797    -326.042
  O     -178.262    1076.994    -326.283
  N     -179.719    1074.285    -326.567
  C     -180.809    1073.519    -326.507
  N     -181.907    1074.220    -326.107
  O     -183.015    1069.217    -330.082
  O     -181.775    1071.383    -330.661
  H     -185.004    1075.557    -326.297
  H     -181.608    1070.889    -331.482
  H     -179.855    1078.727    -325.518
  H     -180.821    1072.470    -326.738
  H     -183.682    1074.180    -325.054
  H     -183.512    1073.987    -328.147
  H     -181.901    1079.690    -324.840
  H     -185.595    1072.822    -328.197
  H     -183.298    1078.694    -324.741
  H     -185.105    1071.321    -325.832
  H     -183.384    1070.036    -327.135
  H     -184.910    1070.261    -328.016
  P     -187.671    1073.769    -326.911
  C     -188.910    1071.501    -326.703
  O     -188.760    1072.846    -326.191
  O     -187.763    1073.777    -328.421
  O     -188.000    1075.216    -326.309
  H     -188.554    1075.703    -326.922
  H     -189.663    1070.988    -326.142
  H     -187.980    1070.979    -326.612
  H     -189.198    1071.541    -327.733

 6  7  8  9  10  11  12  13  14  15  26  29  33  34 0
 6-311+G(2d,p)
 ****
 36  38  39  40  41 0
 6-311+G(2d,p)
 ****
 1  2  3  4  5  16  17  18  19  20  21  22  23  24  25 0
 3-21G
 ****
 27  28  30  31  32  35  37  42  43  44  45  46  47 0
 3-21G
 ****
 48  49 0
 3-21G
 ****


