%nproc=1
%NoSave
%Mem=1900MB
#P OB98/GEN NMR

erre ene a

0 1
  C      -82.412     127.990     330.185
  O      -82.635     128.907     329.133
  H      -82.949     127.064     329.962
  H      -82.785     128.395     331.128
  H      -81.343     127.768     330.270
  P      -81.978     130.361     329.291
  C      -83.670     131.531     330.880
  O      -83.187     131.385     329.550
  C      -84.566     132.766     330.968
  O      -83.767     133.962     330.847
  C      -85.603     132.859     329.852
  O      -86.715     132.016     330.082
  C      -85.960     134.334     329.919
  O      -86.950     134.594     330.922
  C      -84.608     134.989     330.284
  N      -83.982     135.646     329.138
  C      -84.569     136.839     328.736
  O      -85.552     137.331     329.289
  N      -84.010     137.440     327.639
  C      -82.970     136.950     326.902
  O      -82.561     137.497     325.882
  C      -82.383     135.686     327.383
  C      -82.913     135.094     328.452
  O      -81.500     130.707     327.804
  O      -80.864     130.448     330.278
  H      -80.536     130.581     327.726
  H      -87.200     135.532     330.826
  H      -84.430     138.304     327.325
  H      -81.554     135.276     326.823
  H      -82.513     134.155     328.821
  H      -84.751     135.744     331.067
  H      -86.373     134.691     328.973
  H      -85.135     132.647     328.883
  H      -85.057     132.770     331.950
  H      -82.826     131.656     331.563
  H      -84.223     130.629     331.161
  P      -87.228     131.079     328.885
  C      -89.767     131.631     329.287
  O      -88.735     130.659     329.244
  O      -86.379     129.749     329.151
  O      -87.049     131.682     327.531
  H      -86.245     129.560     330.096
  H      -90.692     131.158     329.542
  H      -89.857     132.098     328.328
  H      -89.530     132.371     330.023

 6  7  8  9  10  11  12  13  14  15  16  27  31  32  33  34  35 0
 6-311+G(2d,p)
 ****
 36  37 0
 6-311+G(2d,p)
 ****
 1  2  3  4  5  17  18  19  20  21  22  23  24  25 0
 3-21G
 ****
 26  28  29  30  38  39  40  41  42  43  44  45 0
 3-21G
 ****


