%nproc=1
%NoSave
%Mem=1900MB
#P OB98/GEN NMR

erre ene a

0 1
  C       35.024      -7.963     -14.865
  O       35.778      -9.066     -14.399
  H       34.544      -8.242     -15.805
  H       35.675      -7.104     -15.045
  H       34.249      -7.699     -14.141
  P       36.618      -8.900     -13.047
  C       38.630      -8.156     -14.485
  O       37.791      -7.857     -13.376
  C       40.098      -8.047     -14.082
  O       40.402      -6.709     -13.644
  C       40.507      -8.976     -12.940
  O       40.760     -10.284     -13.425
  C       41.767      -8.280     -12.454
  O       42.855      -8.563     -13.357
  C       41.369      -6.796     -12.562
  N       41.754      -3.180      -9.023
  C       42.631      -3.528     -10.032
  N       43.788      -2.834     -10.086
  N       42.401      -4.478     -10.900
  C       41.237      -5.133     -10.681
  C       40.296      -4.892      -9.707
  C       40.532      -3.794      -8.793
  O       39.769      -3.437      -7.900
  N       39.288      -5.823      -9.740
  C       39.594      -6.592     -10.767
  N       40.774      -6.221     -11.368
  O       37.096     -10.169     -12.408
  O       35.651      -8.068     -12.081
  H       43.587      -7.965     -13.120
  H       35.111      -8.662     -11.527
  H       41.989      -2.444      -8.378
  H       38.998      -7.425     -11.120
  H       42.221      -6.160     -12.829
  H       42.078      -8.609     -11.462
  H       44.087      -2.199      -9.362
  H       39.766      -8.972     -12.134
  H       44.467      -3.115     -10.783
  H       40.706      -8.237     -14.977
  H       38.398      -7.438     -15.277
  H       38.426      -9.165     -14.857
  P       40.293     -11.587     -12.609
  C       42.734     -12.315     -12.159
  O       41.497     -11.908     -11.600
  O       39.867     -12.736     -13.456
  O       39.164     -11.049     -11.617
  H       38.268     -11.016     -12.035
  H       43.439     -12.493     -11.374
  H       43.105     -11.545     -12.803
  H       42.592     -13.214     -12.722

 6  7  8  9  10  11  12  13  14  15  26  29  33  34 0
 6-311+G(2d,p)
 ****
 36  38  39  40  41 0
 6-311+G(2d,p)
 ****
 1  2  3  4  5  16  17  18  19  20  21  22  23  24  25 0
 3-21G
 ****
 27  28  30  31  32  35  37  42  43  44  45  46  47 0
 3-21G
 ****
 48  49 0
 3-21G
 ****


