%nproc=1
%NoSave
%Mem=1900MB
#P OB98/GEN NMR

erre ene a

0 1
  C       73.562     186.731      67.445
  O       73.785     185.597      66.634
  H       74.483     186.963      67.984
  H       72.775     186.522      68.174
  H       73.286     187.597      66.837
  P       72.648     185.153      65.597
  C       74.193     185.458      63.552
  O       72.995     185.856      64.200
  C       73.896     184.892      62.158
  O       73.306     185.950      61.343
  C       75.140     184.381      61.404
  O       74.703     183.317      60.546
  C       75.517     185.616      60.606
  O       76.475     185.349      59.614
  C       74.119     186.058      60.154
  N       74.038     187.402      59.596
  C       73.891     187.522      58.217
  O       73.822     186.575      57.436
  N       73.828     188.804      57.736
  C       73.879     189.946      58.480
  O       73.786     191.067      57.997
  C       74.042     189.755      59.929
  C       74.106     188.513      60.414
  O       71.241     185.329      66.062
  O       72.982     183.612      65.309
  H       72.374     183.045      65.819
  H       76.023     184.978      58.825
  H       73.718     188.910      56.740
  H       74.098     190.640      60.548
  H       74.216     188.340      61.479
  H       73.719     185.344      59.427
  H       75.969     186.362      61.265
  H       75.925     184.014      62.071
  H       73.139     184.103      62.251
  H       74.676     184.690      64.166
  H       74.862     186.321      63.471
  P       73.995     181.981      61.085
  C       71.798     181.892      59.718
  O       72.405     182.180      60.973
  O       74.452     181.559      62.443
  O       74.321     180.859      59.992
  H       74.304     179.979      60.413
  H       70.744     182.066      59.783
  H       71.976     180.868      59.463
  H       72.218     182.526      58.965

 6  7  8  9  10  11  12  13  14  15  16  27  31  32  33  34  35 0
 6-311+G(2d,p)
 ****
 36  37 0
 6-311+G(2d,p)
 ****
 1  2  3  4  5  17  18  19  20  21  22  23  24  25 0
 3-21G
 ****
 26  28  29  30  38  39  40  41  42  43  44  45 0
 3-21G
 ****


