%nproc=1
%NoSave
%Mem=1900MB
#P OB98/GEN NMR

erre ene a

0 1
  C      262.985     621.937    -274.609
  O      262.356     621.970    -273.336
  P      260.822     621.492    -273.256
  C      260.159     623.496    -271.749
  O      260.235     622.082    -271.885
  C      259.724     623.896    -270.329
  O      258.393     623.375    -270.083
  C      260.652     623.372    -269.229
  O      260.729     624.380    -268.212
  C      259.902     622.172    -268.680
  O      260.288     621.885    -267.331
  C      258.447     622.619    -268.857
  N      257.520     621.492    -268.883
  C      257.306     620.812    -267.677
  O      257.948     621.124    -266.675
  N      256.414     619.767    -267.656
  C      255.874     619.362    -268.759
  N      254.992     618.325    -268.685
  C      256.163     619.977    -270.078
  C      256.971     621.037    -270.057
  O      260.960     619.925    -272.954
  O      260.023     621.767    -274.486
  H      261.257     621.717    -267.313
  H      260.220     619.425    -273.355
  H      255.710     619.578    -270.970
  H      257.225     621.564    -270.977
  H      258.144     623.297    -268.034
  H      260.111     621.287    -269.295
  H      261.659     623.141    -269.587
  H      259.660     624.988    -270.290
  H      254.824     617.915    -267.772
  H      259.411     623.885    -272.446
  H      254.517     617.950    -269.498
  H      261.127     623.944    -271.993
  P      261.972     625.394    -268.257
  C      263.418     624.099    -266.570
  O      262.662     625.267    -266.813
  O      261.234     626.809    -268.140
  O      262.875     625.353    -269.444
  H      261.890     627.529    -268.225
  H      263.940     624.208    -265.610
  H      264.163     623.949    -267.362
  H      262.758     623.224    -266.511
  H      263.995     622.278    -274.517
  H      262.454     622.573    -275.286
  H      262.980     620.935    -274.983

 3  4  5  6  7  8  9  10  11  12  13  21  23  27  28  29  30  32 0
 6-311+G(2d,p)
 ****
 34  35 0
 6-311+G(2d,p)
 ****
 1  2  14  15  16  17  18  19  20  22  24  25  26 0
 3-21G
 ****
 31  33  36  37  38  39  40  41  42  43  44  45  46 0
 3-21G
 ****


