%nproc=1
%NoSave
%Mem=1900MB
#P OB98/GEN NMR

erre ene a

0 1
  C       28.279     260.207    -124.239
  O       28.519     258.835    -124.001
  H       27.717     260.309    -125.172
  H       29.230     260.744    -124.339
  H       27.692     260.638    -123.424
  P       29.299     258.464    -122.648
  C       31.309     257.594    -124.060
  O       30.355     257.319    -123.038
  C       32.096     256.330    -124.386
  O       32.887     255.947    -123.241
  C       31.230     255.114    -124.707
  O       30.737     255.150    -126.038
  C       32.210     253.976    -124.454
  O       33.052     253.746    -125.592
  C       33.045     254.509    -123.281
  N       34.692     251.918    -119.211
  C       35.340     252.416    -120.287
  N       34.827     253.116    -121.322
  C       33.504     253.292    -121.167
  C       32.708     252.834    -120.125
  C       33.357     252.118    -119.104
  N       32.694     251.581    -118.025
  N       31.388     253.176    -120.338
  C       31.384     253.830    -121.487
  N       32.643     253.931    -122.015
  O       28.186     257.686    -121.794
  O       29.867     259.623    -121.901
  H       32.528     253.215    -126.224
  H       27.744     258.310    -121.188
  H       36.413     252.224    -120.323
  H       30.503     254.243    -121.969
  H       34.112     254.305    -123.409
  H       31.687     253.043    -124.240
  H       30.401     255.039    -123.987
  H       32.782     256.552    -125.214
  H       31.998     258.372    -123.706
  H       30.779     257.960    -124.947
  H       33.216     251.055    -117.344
  H       31.684     251.634    -117.996
  P       29.283     254.538    -126.328
  C       29.980     252.255    -127.364
  O       29.423     253.538    -127.580
  O       28.474     255.781    -126.923
  O       28.606     253.946    -125.135
  H       27.904     256.183    -126.235
  H       30.004     251.716    -128.288
  H       29.382     251.721    -126.655
  H       30.975     252.357    -126.985

 6  7  8  9  10  11  12  13  14  15  25  28  32  33  34  35 0
 6-311+G(2d,p)
 ****
 36  37  40 0
 6-311+G(2d,p)
 ****
 1  2  3  4  5  16  17  18  19  20  21  22  23  24 0
 3-21G
 ****
 26  27  29  30  31  38  39 41  42  43  44  45  46  47  48 0
 3-21G
 ****


