%nproc=1
%NoSave
%Mem=1900MB
#P OB98/GEN NMR

erre ene a

0 1
  C      194.417     251.094     289.404
  O      195.502     250.715     288.581
  H      194.115     250.258     290.042
  H      194.732     251.926     290.043
  H      193.571     251.419     288.790
  P      195.257     249.479     287.589
  C      193.221     250.738     286.567
  O      193.701     249.559     287.196
  C      191.750     250.558     286.212
  O      191.263     251.720     285.500
  C      191.478     249.370     285.299
  O      191.401     248.144     286.008
  C      190.128     249.759     284.722
  O      189.094     249.518     285.693
  C      190.310     251.269     284.503
  N      189.007     252.404     279.683
  C      188.265     252.173     280.787
  N      188.690     251.899     282.039
  C      190.030     251.884     282.093
  C      190.918     252.104     281.051
  C      190.356     252.372     279.792
  N      191.110     252.574     278.657
  N      192.222     251.984     281.493
  C      192.120     251.710     282.777
  N      190.815     251.608     283.181
  O      195.319     248.200     288.550
  O      196.185     249.382     286.424
  H      189.267     250.111     286.447
  H      195.406     247.383     288.023
  H      187.189     252.214     280.646
  H      192.953     251.569     283.452
  H      189.381     251.833     284.649
  H      189.870     249.187     283.828
  H      192.212     249.312     284.485
  H      191.179     250.478     287.145
  H      193.802     250.917     285.655
  H      190.616     252.609     277.777
  H      192.104     252.406     278.698
  H      193.347     251.588     287.243
  P      191.225     246.800     285.145
  C      193.583     245.873     285.720
  O      192.701     246.346     284.709
  O      190.583     247.330     283.781
  O      190.388     245.748     285.797
  H      189.985     246.662     283.394
  H      194.522     245.610     285.280
  H      193.157     245.012     286.191
  H      193.734     246.641     286.450

 6  7  8  9  10  11  12  13  14  15  25  28  32  33  34  35 0
 6-311+G(2d,p)
 ****
 36  39  40 0
 6-311+G(2d,p)
 ****
 1  2  3  4  5  16  17  18  19  20  21  22  23  24 0
 3-21G
 ****
 26  27  29  30  31  37  38  41  42  43  44  45  46  47 0
 3-21G
 ****
 48 0
 3-21G
 ****


