%nproc=1
%NoSave
%Mem=1900MB
#P OB98/GEN NMR

erre ene a

0 1
  C      677.043     -27.180     -13.845
  O      678.395     -27.571     -13.723
  H      676.443     -27.778     -13.153
  H      676.693     -27.363     -14.863
  H      676.924     -26.124     -13.591
  P      679.467     -26.751     -14.591
  C      679.838     -24.666     -13.092
  O      680.354     -25.911     -13.541
  C      680.772     -24.038     -12.057
  O      680.370     -22.651     -11.841
  C      680.763     -24.738     -10.691
  O      682.092     -24.668     -10.148
  C      679.863     -23.842      -9.855
  O      680.083     -23.994      -8.456
  C      680.251     -22.472     -10.414
  N      679.718     -17.931      -8.313
  C      680.853     -18.686      -8.548
  N      682.029     -18.150      -8.160
  N      680.833     -19.865      -9.110
  C      679.592     -20.268      -9.474
  C      678.395     -19.621      -9.295
  C      678.425     -18.323      -8.647
  O      677.452     -17.621      -8.395
  N      677.351     -20.369      -9.783
  C      677.920     -21.467     -10.253
  N      679.278     -21.449     -10.086
  O      678.564     -25.636     -15.298
  O      680.243     -27.554     -15.579
  H      681.019     -23.770      -8.270
  H      678.280     -25.941     -16.183
  H      679.786     -17.036      -7.863
  H      677.398     -22.296     -10.709
  H      681.220     -22.124     -10.032
  H      678.809     -24.065     -10.061
  H      682.127     -17.227      -7.764
  H      680.427     -25.782     -10.719
  H      682.877     -18.665      -8.359
  H      681.785     -24.008     -12.475
  H      678.859     -24.833     -12.636
  H      679.723     -23.994     -13.948
  P      682.936     -26.026     -10.051
  C      683.481     -26.953     -12.419
  O      683.878     -26.118     -11.344
  O      681.832     -27.154     -10.338
  O      683.611     -26.237      -8.737
  H      682.090     -27.987      -9.898
  H      684.213     -26.903     -13.198
  H      682.535     -26.624     -12.796
  H      683.396     -27.962     -12.074

 6  7  8  9  10  11  12  13  14  15  26  29  33  34 0
 6-311+G(2d,p)
 ****
 36  38  39  40  41 0
 6-311+G(2d,p)
 ****
 1  2  3  4  5  16  17  18  19  20  21  22  23  24  25 0
 3-21G
 ****
 27  28  30  31  32  35  37  42  43  44  45  46  47 0
 3-21G
 ****
 48  49 0
 3-21G
 ****


