%nproc=1
%NoSave
%Mem=1900MB
#P OB98/GEN NMR

erre ene a

0 1
  C      -54.764     685.864     662.150
  O      -54.034     685.090     661.194
  P      -54.214     685.522     659.660
  C      -53.337     687.477     658.187
  O      -53.133     686.682     659.339
  C      -51.991     687.912     657.587
  O      -51.215     688.709     658.502
  C      -51.097     686.743     657.198
  O      -51.514     686.203     655.957
  C      -49.723     687.404     657.142
  O      -49.507     688.043     655.859
  C      -49.813     688.460     658.257
  N      -45.381     687.551     660.560
  C      -45.655     687.766     659.220
  N      -44.598     687.771     658.384
  N      -46.861     687.965     658.755
  C      -47.820     687.932     659.715
  C      -47.666     687.749     661.063
  C      -46.327     687.529     661.565
  O      -46.032     687.333     662.748
  N      -48.862     687.845     661.728
  C      -49.754     687.958     660.746
  N      -49.164     688.086     659.515
  O      -55.617     686.282     659.642
  O      -54.196     684.366     658.705
  H      -49.609     687.383     655.155
  H      -56.281     685.753     659.163
  H      -44.427     687.383     660.858
  H      -50.833     687.982     660.889
  H      -49.354     689.408     657.951
  H      -48.911     686.673     657.258
  H      -43.639     687.631     658.669
  H      -51.117     685.974     657.986
  H      -44.781     687.948     657.397
  H      -52.209     688.523     656.695
  H      -53.928     688.358     658.433
  H      -53.918     686.900     657.455
  P      -52.415     684.878     655.969
  C      -54.954     684.370     656.244
  O      -53.946     685.338     655.959
  O      -52.194     684.305     657.460
  O      -52.043     683.858     654.939
  H      -52.056     683.340     657.411
  H      -55.809     684.883     656.701
  H      -54.587     683.606     656.928
  H      -55.277     683.906     655.305
  H      -54.571     685.490     663.134
  H      -55.811     685.794     661.941
  H      -54.456     686.887     662.090

 3  4  5  6  7  8  9  10  11  12  23  26  30  31 0
 6-311+G(2d,p)
 ****
 33  35  36  37  38 0
 6-311+G(2d,p)
 ****
 1  2  13  14  15  16  17  18  19  20  21  22  24  25 0
 3-21G
 ****
 27  28  29  32  34  39  40  41  42  43  44  45  46  47  48  49 0
 3-21G
 ****


