%nproc=1
%NoSave
%Mem=1900MB
#P OB98/GEN NMR

erre ene a

0 1
  C     -153.421    -144.706     -25.747
  O     -153.256    -144.620     -27.151
  H     -153.539    -143.697     -25.344
  H     -152.536    -145.164     -25.297
  H     -154.310    -145.292     -25.502
  P     -153.300    -146.002     -27.959
  C     -155.009    -147.985     -28.136
  O     -154.591    -146.814     -27.447
  C     -155.904    -148.831     -27.238
  O     -155.154    -149.375     -26.133
  C     -157.025    -148.058     -26.565
  O     -158.055    -147.702     -27.462
  C     -157.465    -149.059     -25.505
  O     -158.391    -150.016     -26.031
  C     -156.127    -149.742     -25.125
  N     -155.700    -149.383     -23.786
  C     -155.815    -150.402     -22.828
  O     -156.234    -151.513     -23.156
  N     -155.486    -150.119     -21.528
  C     -155.108    -148.922     -21.203
  N     -154.831    -148.701     -19.890
  C     -154.976    -147.821     -22.178
  C     -155.287    -148.119     -23.441
  O     -152.081    -146.814     -27.318
  O     -153.230    -145.863     -29.441
  H     -158.583    -150.643     -25.305
  H     -152.079    -146.819     -26.348
  H     -154.644    -146.846     -21.860
  H     -155.220    -147.371     -24.223
  H     -156.228    -150.834     -25.172
  H     -157.960    -148.566     -24.665
  H     -156.620    -147.175     -26.053
  H     -156.298    -149.666     -27.834
  H     -154.987    -149.469     -19.247
  H     -154.141    -148.567     -28.465
  H     -154.603    -147.794     -19.510
  H     -155.554    -147.669     -29.031
  P     -158.960    -146.404     -27.217
  C     -158.550    -143.947     -26.560
  O     -157.973    -145.241     -26.706
  O     -160.160    -146.615     -26.354
  O     -159.305    -145.918     -28.703
  H     -158.532    -145.698     -29.253
  H     -157.804    -143.261     -26.217
  H     -159.348    -143.991     -25.849
  H     -158.931    -143.618     -27.504

 6  7  8  9  10  11  12  13  14  15  16  26  30  31  32  33  35 0
 6-311+G(2d,p)
 ****
 37  38 0
 6-311+G(2d,p)
 ****
 1  2  3  4  5  17  18  19  20  21  22  23  24  25 0
 3-21G
 ****
 27  28  29  34  36  39  40  41  42  43  44  45  46 0
 3-21G
 ****


