%nproc=1
%NoSave
%Mem=1900MB
#P OB98/GEN NMR

erre ene a

0 1
  C       -2.554    -198.533    -486.354
  O       -2.785    -199.842    -486.853
  P       -2.531    -201.064    -485.847
  C       -3.415    -203.502    -485.634
  O       -3.503    -202.255    -486.299
  C       -4.828    -204.051    -485.340
  O       -5.419    -203.299    -484.265
  C       -5.799    -203.938    -486.506
  O       -5.544    -204.940    -487.480
  C       -7.117    -204.108    -485.761
  O       -7.364    -205.490    -485.474
  C       -6.855    -203.334    -484.459
  N      -11.030    -200.359    -484.105
  C      -10.867    -201.699    -484.061
  N       -9.719    -202.417    -484.176
  C       -8.677    -201.603    -484.368
  C       -8.686    -200.224    -484.472
  C       -9.925    -199.580    -484.319
  N      -10.083    -198.224    -484.374
  N       -7.413    -199.725    -484.680
  C       -6.645    -200.803    -484.704
  N       -7.355    -201.961    -484.498
  O       -3.186    -200.556    -484.480
  O       -1.089    -201.449    -485.665
  H       -8.224    -205.546    -485.018
  H       -2.692    -200.884    -483.704
  H      -11.769    -202.280    -483.895
  H       -5.567    -200.791    -484.871
  H       -7.308    -203.815    -483.581
  H       -7.987    -203.733    -486.331
  H       -5.742    -202.948    -486.965
  H       -4.719    -205.091    -485.011
  H       -2.881    -203.388    -484.693
  H      -11.032    -197.853    -484.420
  H       -9.299    -197.659    -484.683
  H       -2.859    -204.207    -486.264
  P       -6.377    -204.849    -488.854
  C       -5.970    -206.011    -491.121
  O       -5.368    -205.481    -489.948
  O       -6.301    -203.281    -489.178
  O       -7.738    -205.447    -488.804
  H       -5.393    -202.935    -489.094
  H       -5.180    -206.354    -491.783
  H       -6.558    -205.236    -491.629
  H       -6.608    -206.859    -490.859
  H       -2.760    -197.817    -487.122
  H       -1.533    -198.443    -486.047
  H       -3.195    -198.352    -485.517

 3  4  5  6  7  8  9  10  11  12  22  25  29  30  31  32 0
 6-311+G(2d,p)
 ****
 33  36  37 0
 6-311+G(2d,p)
 ****
 1  2  13  14  15  16  17  18  19  20  21  23  24  26 0
 3-21G
 ****
 27  28  34  35  38  39  40  41  42  43  44  45  46  47  48 0
 3-21G
 ****


