%nproc=1
%NoSave
%Mem=1900MB
#P OB98/GEN NMR

erre ene a

0 1
  C     -657.545    -184.781     502.791
  O     -656.845    -183.562     502.636
  H     -657.617    -185.016     503.852
  H     -657.006    -185.586     502.286
  H     -658.557    -184.698     502.379
  P     -656.822    -182.898     501.178
  C     -654.519    -181.719     500.954
  O     -655.892    -181.592     501.283
  C     -653.654    -181.189     502.092
  O     -654.041    -179.806     502.357
  C     -653.811    -181.962     503.412
  O     -652.523    -182.001     504.064
  C     -654.752    -181.097     504.223
  O     -654.659    -181.286     505.617
  C     -654.308    -179.690     503.771
  N     -655.323    -178.676     504.034
  C     -655.007    -177.692     504.983
  O     -653.926    -177.577     505.540
  N     -656.027    -176.817     505.274
  C     -657.289    -176.841     504.748
  O     -658.161    -176.032     505.061
  C     -657.550    -177.900     503.764
  C     -656.577    -178.759     503.462
  O     -658.298    -182.288     501.040
  O     -656.476    -183.819     500.058
  H     -658.907    -182.949     500.646
  H     -654.881    -182.223     505.809
  H     -655.823    -176.107     505.953
  H     -658.547    -177.960     503.335
  H     -656.747    -179.556     502.753
  H     -653.371    -179.421     504.266
  H     -655.788    -181.293     503.912
  H     -654.180    -182.985     503.288
  H     -652.601    -181.169     501.766
  H     -654.305    -181.146     500.039
  H     -654.289    -182.779     500.761
  P     -651.831    -183.436     504.234
  C     -650.166    -183.635     506.244
  O     -650.424    -183.147     504.943
  O     -651.465    -183.781     502.717
  O     -652.703    -184.433     504.908
  H     -651.207    -182.998     502.198
  H     -649.182    -183.343     506.546
  H     -650.238    -184.703     506.245
  H     -650.883    -183.229     506.926

 6  7  8  9  10  11  12  13  14  15  16  27  31  32  33  34  35 0
 6-311+G(2d,p)
 ****
 36  37 0
 6-311+G(2d,p)
 ****
 1  2  3  4  5  17  18  19  20  21  22  23  24  25 0
 3-21G
 ****
 26  28  29  30  38  39  40  41  42  43  44  45 0
 3-21G
 ****


