%nproc=1
%NoSave
%Mem=1900MB
#P OB98/GEN NMR

erre ene a

0 1
  C       92.561     113.389     -35.422
  O       91.492     114.262     -35.113
  H       92.251     112.732     -36.237
  H       92.798     112.778     -34.548
  H       93.444     113.951     -35.737
  P       91.834     115.523     -34.180
  C       91.133     114.225     -32.044
  O       92.159     114.935     -32.721
  C       91.266     114.414     -30.537
  O       90.095     113.908     -29.860
  C       92.462     113.700     -29.916
  O       93.652     114.465     -30.044
  C       92.020     113.618     -28.464
  O       92.197     114.902     -27.830
  C       90.523     113.308     -28.605
  N       90.658     108.957     -26.001
  C       91.153     110.204     -25.669
  N       91.779     110.303     -24.478
  N       91.048     111.258     -26.436
  C       90.419     111.005     -27.609
  C       89.892     109.812     -28.053
  C       90.001     108.661     -27.188
  O       89.570     107.536     -27.432
  N       89.330     109.942     -29.296
  C       89.536     111.205     -29.613
  N       90.196     111.893     -28.624
  O       90.405     116.225     -33.997
  O       92.838     116.473     -34.737
  H       93.146     115.117     -27.880
  H       90.360     117.005     -34.582
  H       90.775     108.177     -25.379
  H       89.223     111.670     -30.537
  H       89.927     113.761     -27.804
  H       92.600     112.896     -27.887
  H       91.915     109.528     -23.849
  H       92.584     112.687     -30.320
  H       92.146     111.209     -24.212
  H       91.315     115.494     -30.338
  H       91.215     113.161     -32.287
  H       90.161     114.597     -32.382
  P       94.970     113.732     -30.591
  C       96.680     114.472     -28.788
  O       95.893     113.415     -29.315
  O       95.750     114.919     -31.330
  O       94.727     112.586     -31.511
  H       95.751     114.766     -32.296
  H       97.238     114.116     -27.947
  H       96.041     115.273     -28.479
  H       97.354     114.824     -29.540

 6  7  8  9  10  11  12  13  14  15  26  29  33  34 0
 6-311+G(2d,p)
 ****
 36  38  39  40  41 0
 6-311+G(2d,p)
 ****
 1  2  3  4  5  16  17  18  19  20  21  22  23  24  25 0
 3-21G
 ****
 27  28  30  31  32  35  37  42  43  44  45  46  47 0
 3-21G
 ****
 48  49 0
 3-21G
 ****


