%nproc=1
%NoSave
%Mem=1900MB
#P OB98/GEN NMR

erre ene a

0 1
  C       72.515      10.906     120.074
  O       72.988       9.810     119.312
  P       71.951       9.080     118.332
  C       71.236       7.090     119.858
  O       70.879       8.325     119.252
  C       70.162       6.681     120.869
  O       70.115       7.627     121.961
  C       68.755       6.657     120.288
  O       68.527       5.480     119.532
  C       67.901       6.747     121.544
  O       67.736       5.454     122.148
  C       68.755       7.664     122.444
  N       68.239       9.027     122.508
  C       67.621       9.390     123.701
  O       67.489       8.613     124.648
  N       67.123      10.662     123.756
  C       67.130      11.571     122.739
  O       66.617      12.679     122.829
  C       67.770      11.122     121.490
  C       68.280       9.890     121.431
  O       72.805       7.890     117.688
  O       71.356       9.964     117.289
  H       67.582       5.610     123.101
  H       72.531       7.749     116.762
  H       66.695      10.952     124.620
  H       67.793      11.818     120.661
  H       68.742       9.537     120.516
  H       68.789       7.263     123.465
  H       66.900       7.134     121.336
  H       68.587       7.553     119.676
  H       70.427       5.700     121.279
  H       72.198       7.201     120.365
  H       71.340       6.328     119.080
  P       67.759       5.651     118.132
  C       65.390       5.648     119.232
  O       66.368       6.355     118.504
  O       67.384       4.128     117.810
  O       68.587       6.325     117.090
  H       67.217       3.613     118.617
  H       65.843       4.979     119.969
  H       64.775       5.065     118.542
  H       64.752       6.366     119.754
  H       73.311      11.291     120.677
  H       71.713      10.582     120.705
  H       72.164      11.673     119.416

 3  4  5  6  7  8  9  10  11  12  13  23  28  29  30  31  32 0
 6-311+G(2d,p)
 ****
 33  34 0
 6-311+G(2d,p)
 ****
 1  2  14  15  16  17  18  19  20  21  22  24  25  26 0
 3-21G
 ****
 27  35  36  37  38  39  40  41  42  43  44  45 0
 3-21G
 ****


