%nproc=1
%NoSave
%Mem=1900MB
#P OB98/GEN NMR

erre ene a

0 1
  C     -138.821      14.278    -104.478
  O     -139.248      14.795    -103.213
  P     -139.470      16.381    -103.111
  C     -141.349      16.499    -104.892
  O     -140.986      16.710    -103.535
  C     -142.874      16.520    -105.075
  O     -143.505      15.487    -104.263
  C     -143.522      17.852    -104.682
  O     -144.648      18.064    -105.547
  C     -144.030      17.585    -103.277
  O     -145.040      18.518    -102.897
  C     -144.489      16.134    -103.426
  N     -147.554      15.275     -99.431
  C     -147.722      15.988    -100.562
  N     -146.844      16.188    -101.573
  C     -145.705      15.514    -101.343
  C     -145.382      14.751    -100.229
  C     -146.372      14.640     -99.234
  N     -146.189      13.929     -98.069
  N     -144.094      14.257    -100.337
  C     -143.648      14.721    -101.489
  N     -144.596      15.459    -102.146
  O     -138.604      16.948    -104.332
  O     -139.029      16.972    -101.807
  H     -145.317      18.310    -101.976
  H     -137.802      17.392    -103.992
  H     -148.691      16.473    -100.671
  H     -142.658      14.558    -101.889
  H     -145.466      16.052    -103.916
  H     -143.206      17.664    -102.560
  H     -142.853      18.717    -104.725
  H     -143.097      16.297    -106.126
  H     -140.959      15.538    -105.242
  H     -146.936      13.927     -97.393
  H     -145.292      13.495     -97.892
  H     -140.863      17.263    -105.514
  P     -144.830      19.544    -106.134
  C     -142.885      19.168    -107.821
  O     -144.250      19.507    -107.629
  O     -143.748      20.409    -105.326
  O     -146.211      20.096    -105.986
  H     -144.023      21.345    -105.292
  H     -142.802      18.520    -108.698
  H     -142.469      18.639    -106.953
  H     -142.313      20.079    -107.995
  H     -138.711      13.216    -104.411
  H     -137.882      14.717    -104.744
  H     -139.550      14.515    -105.225

 3  4  5  6  7  8  9  10  11  12  22  25  29  30  31  32 0
 6-311+G(2d,p)
 ****
 33  36  37 0
 6-311+G(2d,p)
 ****
 1  2  13  14  15  16  17  18  19  20  21  23  24  26 0
 3-21G
 ****
 27  28  34  35  38  39  40  41  42  43  44  45  46  47  48 0
 3-21G
 ****


