%nproc=1
%NoSave
%Mem=1900MB
#P OB98/GEN NMR

erre ene a

0 1
  C      -74.656     398.764    -115.703
  O      -74.541     397.436    -116.235
  P      -73.813     396.301    -115.356
  C      -75.561     395.776    -113.481
  O      -74.937     395.368    -114.689
  C      -77.061     395.464    -113.531
  O      -77.753     396.435    -114.353
  C      -77.398     394.111    -114.144
  O      -77.152     393.044    -113.235
  C      -78.877     394.292    -114.477
  O      -79.697     394.058    -113.322
  C      -78.927     395.777    -114.891
  N      -79.026     395.955    -116.335
  C      -80.202     395.523    -116.930
  O      -81.105     394.958    -116.316
  N      -80.293     395.730    -118.283
  C      -79.319     396.248    -119.087
  O      -79.453     396.390    -120.293
  C      -78.067     396.612    -118.409
  C      -77.974     396.445    -117.089
  O      -73.287     397.139    -114.095
  O      -72.684     395.587    -116.027
  H      -80.587     394.407    -113.534
  H      -72.493     396.711    -113.728
  H      -81.151     395.445    -118.734
  H      -77.260     397.009    -119.012
  H      -77.057     396.712    -116.570
  H      -79.788     396.267    -114.416
  H      -79.212     393.602    -115.258
  H      -76.834     393.969    -115.071
  H      -77.459     395.538    -112.509
  H      -75.427     396.853    -113.348
  H      -75.087     395.260    -112.641
  P      -76.381     391.763    -113.827
  C      -74.852     391.520    -111.720
  O      -75.855     390.964    -112.541
  O      -75.074     392.454    -114.451
  O      -77.199     390.986    -114.803
  H      -74.791     393.229    -113.935
  H      -74.927     392.608    -111.674
  H      -73.866     391.237    -112.106
  H      -74.960     391.115    -110.709
  H      -75.162     399.389    -116.409
  H      -73.679     399.158    -115.513
  H      -75.213     398.735    -114.790

 3  4  5  6  7  8  9  10  11  12  13  23  28  29  30  31  32 0
 6-311+G(2d,p)
 ****
 33  34 0
 6-311+G(2d,p)
 ****
 1  2  14  15  16  17  18  19  20  21  22  24  25  26 0
 3-21G
 ****
 27  35  36  37  38  39  40  41  42  43  44  45 0
 3-21G
 ****


