%nproc=1
%NoSave
%Mem=1900MB
#P OB98/GEN NMR

erre ene a

0 1
  C       95.671    -140.152    -287.425
  O       96.480    -140.493    -286.303
  P       97.982    -139.910    -286.252
  C       98.757    -141.558    -288.093
  O       98.955    -141.078    -286.779
  C       99.122    -143.045    -288.202
  O       98.820    -143.503    -289.553
  C      100.601    -143.361    -287.937
  O      100.655    -144.656    -287.323
  C      101.199    -143.446    -289.331
  O      102.418    -144.185    -289.350
  C      100.036    -144.097    -290.084
  N      102.283    -145.584    -294.440
  C      102.400    -146.029    -293.170
  N      101.770    -145.578    -292.055
  C      100.940    -144.565    -292.362
  C      100.737    -143.988    -293.601
  C      101.454    -144.535    -294.684
  N      101.325    -144.095    -295.982
  N       99.822    -142.947    -293.515
  C       99.481    -142.900    -292.239
  N      100.117    -143.882    -291.517
  O       98.282    -139.852    -284.680
  O       98.170    -138.578    -286.892
  H      102.787    -144.136    -290.255
  H       98.341    -138.923    -284.389
  H      103.099    -146.860    -293.016
  H       98.803    -142.191    -291.803
  H       99.984    -145.183    -289.910
  H      101.395    -142.438    -289.709
  H      101.107    -142.619    -287.306
  H       98.477    -143.606    -287.521
  H       99.404    -140.990    -288.778
  H      101.765    -144.625    -296.712
  H      100.568    -143.441    -296.203
  H       97.716    -141.398    -288.402
  P      101.468    -144.776    -285.945
  C      103.648    -143.968    -287.107
  O      103.013    -144.967    -286.327
  O      101.028    -146.211    -285.380
  O      101.168    -143.680    -284.963
  H      101.088    -146.213    -284.405
  H      104.697    -143.893    -286.816
  H      103.175    -142.987    -286.980
  H      103.582    -144.248    -288.165
  H       94.708    -140.607    -287.322
  H       96.138    -140.504    -288.321
  H       95.560    -139.089    -287.475

 3  4  5  6  7  8  9  10  11  12  22  25  29  30  31  32 0
 6-311+G(2d,p)
 ****
 33  36  37 0
 6-311+G(2d,p)
 ****
 1  2  13  14  15  16  17  18  19  20  21  23  24  26 0
 3-21G
 ****
 27  28  34  35  38  39  40  41  42  43  44  45  46  47  48 0
 3-21G
 ****


