%nproc=1
%NoSave
%Mem=1900MB
#P OB98/GEN NMR

erre ene a

0 1
  C      282.179      99.164    -104.904
  O      281.301     100.033    -104.202
  P      279.738      99.984    -104.560
  C      279.347     102.537    -104.880
  O      279.096     101.385    -104.097
  C      278.770     103.785    -104.200
  O      277.313     103.681    -104.152
  C      279.263     103.994    -102.762
  O      279.349     105.408    -102.531
  C      278.125     103.417    -101.940
  O      278.122     103.865    -100.594
  C      276.922     103.874    -102.780
  N      275.694     103.147    -102.455
  C      275.033     103.504    -101.288
  O      275.419     104.390    -100.518
  N      273.918     102.762    -100.986
  C      273.469     101.672    -101.666
  O      272.535     100.978    -101.278
  C      274.206     101.337    -102.901
  C      275.268     102.078    -103.229
  O      279.153      98.932    -103.510
  O      279.432      99.600    -105.970
  H      277.290     103.569    -100.189
  H      279.031      98.055    -103.929
  H      273.413     103.007    -100.142
  H      273.865     100.490    -103.475
  H      275.848     101.846    -104.114
  H      276.758     104.953    -102.639
  H      278.207     102.319    -101.923
  H      280.228     103.515    -102.555
  H      279.012     104.664    -104.815
  H      278.874     102.417    -105.858
  H      280.428     102.649    -105.046
  P      280.608     106.199    -103.151
  C      281.480     107.557    -101.082
  O      280.762     107.548    -102.296
  O      279.990     106.689    -104.547
  O      281.834     105.360    -103.298
  H      279.081     107.033    -104.462
  H      282.326     106.853    -101.119
  H      280.812     107.276    -100.268
  H      281.867     108.553    -100.902
  H      283.180      99.312    -104.557
  H      282.129      99.377    -105.951
  H      281.889      98.149    -104.732

 3  4  5  6  7  8  9  10  11  12  13  23  28  29  30  31  32 0
 6-311+G(2d,p)
 ****
 33  34 0
 6-311+G(2d,p)
 ****
 1  2  14  15  16  17  18  19  20  21  22  24  25  26 0
 3-21G
 ****
 27  35  36  37  38  39  40  41  42  43  44  45 0
 3-21G
 ****


