%nproc=1
%NoSave
%Mem=1900MB
#P OB98/GEN NMR

erre ene a

0 1
  C      977.117      13.491    -464.087
  O      977.906      14.621    -463.779
  H      976.167      13.572    -463.557
  H      977.614      12.562    -463.782
  H      976.899      13.463    -465.162
  P      979.405      14.677    -464.362
  C      980.240      13.584    -462.166
  O      980.238      13.551    -463.582
  C      981.478      12.889    -461.602
  O      982.635      13.751    -461.813
  C      981.401      12.588    -460.095
  O      982.181      11.413    -459.837
  C      982.066      13.825    -459.499
  O      982.399      13.624    -458.152
  C      983.213      14.001    -460.503
  N      983.817      15.322    -460.420
  C      984.314      15.692    -459.171
  O      984.216      14.928    -458.198
  N      984.882      16.941    -459.017
  C      984.891      17.762    -460.028
  N      985.444      18.977    -459.817
  C      984.316      17.439    -461.355
  C      983.808      16.203    -461.474
  O      980.043      16.039    -464.376
  O      979.264      14.079    -465.839
  H      982.654      14.466    -457.726
  H      979.319      14.799    -466.489
  H      984.317      18.157    -462.154
  H      983.368      15.861    -462.407
  H      983.988      13.252    -460.347
  H      981.395      14.672    -459.537
  H      980.362      12.438    -459.750
  H      981.658      11.973    -462.178
  H      985.809      19.179    -458.895
  H      979.337      13.064    -461.828
  H      985.476      19.706    -460.512
  H      980.194      14.616    -461.805
  P      981.519       9.966    -459.615
  C      981.758       9.913    -457.045
  O      980.856       9.895    -458.142
  O      982.439       8.832    -459.931
  O      980.242       9.927    -460.593
  H      980.104       9.024    -460.887
  H      981.207       9.862    -456.129
  H      982.329      10.818    -457.068
  H      982.418       9.073    -457.112

 6  7  8  9  10  11  12  13  14  15  16  26  30  31  32  33  35 0
 6-311+G(2d,p)
 ****
 37  38 0
 6-311+G(2d,p)
 ****
 1  2  3  4  5  17  18  19  20  21  22  23  24  25 0
 3-21G
 ****
 27  28  29  34  36  39  40  41  42  43  44  45  46 0
 3-21G
 ****


