%nproc=1
%NoSave
%Mem=1900MB
#P OB98/GEN NMR

erre ene a

0 1
  C      201.978      57.264      70.147
  O      203.021      57.585      71.048
  P      203.924      58.883      70.790
  C      205.974      57.325      71.000
  O      205.391      58.580      71.365
  C      207.112      56.972      71.947
  O      208.112      58.010      71.951
  C      206.678      56.816      73.403
  O      206.016      55.579      73.599
  C      208.009      56.950      74.131
  O      208.730      55.708      74.106
  C      208.734      58.003      73.266
  N      209.435      60.718      77.521
  C      209.407      59.387      77.296
  N      209.176      58.739      76.136
  C      208.929      59.618      75.151
  C      208.888      61.003      75.232
  C      209.178      61.568      76.484
  N      209.270      62.924      76.718
  N      208.568      61.551      73.995
  C      208.417      60.521      73.199
  N      208.690      59.330      73.832
  O      203.328      60.177      71.221
  O      204.154      58.872      69.203
  H      208.172      55.029      74.533
  H      203.790      59.697      68.816
  H      209.617      58.767      78.160
  H      208.127      60.576      72.157
  H      209.787      57.748      73.108
  H      207.894      57.245      75.169
  H      206.025      57.646      73.690
  H      207.583      56.049      71.581
  H      206.359      57.428      69.975
  H      209.632      63.211      77.613
  H      209.387      63.531      75.918
  H      205.199      56.555      71.018
  P      204.665      55.519      74.453
  C      205.083      53.086      75.167
  O      204.211      53.975      74.502
  O      203.600      56.478      74.045
  O      205.162      55.790      75.955
  H      204.452      56.257      76.442
  H      205.934      52.853      74.514
  H      204.554      52.171      75.398
  H      205.460      53.525      76.096
  H      201.485      56.372      70.475
  H      202.386      57.108      69.170
  H      201.274      58.069      70.115

 3  4  5  6  7  8  9  10  11  12  22  25  29  30  31  32 0
 6-311+G(2d,p)
 ****
 33  36  37 0
 6-311+G(2d,p)
 ****
 1  2  13  14  15  16  17  18  19  20  21  23  24  26 0
 3-21G
 ****
 27  28  34  35  38  39  40  41  42  43  44  45  46  47  48 0
 3-21G
 ****


