%nproc=1
%NoSave
%Mem=1900MB
#P OB98/GEN NMR

erre ene a

0 1
  C      -27.265    -453.453     -39.218
  O      -28.275    -454.436     -39.423
  P      -29.780    -453.916     -39.641
  C      -31.317    -455.730     -38.571
  O      -30.749    -455.189     -39.760
  C      -31.827    -457.150     -38.833
  O      -32.788    -457.173     -39.904
  C      -30.731    -458.116     -39.253
  O      -29.970    -458.530     -38.135
  C      -31.530    -459.238     -39.909
  O      -31.904    -460.249     -38.968
  C      -32.781    -458.503     -40.456
  N      -32.821    -458.475     -41.910
  C      -33.255    -459.657     -42.527
  O      -33.538    -460.642     -41.860
  N      -33.315    -459.687     -43.906
  C      -32.964    -458.648     -44.590
  N      -33.049    -458.739     -45.951
  C      -32.479    -457.390     -43.978
  C      -32.431    -457.383     -42.648
  O      -29.752    -453.330     -41.134
  O      -30.212    -452.878     -38.651
  H      -31.068    -460.706     -38.712
  H      -30.361    -452.571     -41.214
  H      -32.188    -456.552     -44.591
  H      -32.090    -456.499     -42.113
  H      -33.695    -459.000     -40.100
  H      -30.946    -459.734     -40.689
  H      -30.077    -457.636     -40.002
  H      -32.318    -457.515     -37.916
  H      -33.379    -459.611     -46.338
  H      -32.140    -455.100     -38.227
  H      -32.790    -457.987     -46.580
  H      -30.560    -455.727     -37.782
  P      -28.381    -458.586     -38.286
  C      -28.173    -460.205     -36.302
  O      -27.834    -458.922     -36.815
  O      -27.996    -457.035     -38.436
  O      -27.827    -459.402     -39.410
  H      -27.049    -456.938     -38.633
  H      -27.569    -460.378     -35.397
  H      -27.940    -460.983     -37.029
  H      -29.228    -460.226     -36.023
  H      -26.319    -453.936     -39.088
  H      -27.497    -452.880     -38.344
  H      -27.221    -452.805     -40.068

 3  4  5  6  7  8  9  10  11  12  13  21  23  27  28  29  30  32 0
 6-311+G(2d,p)
 ****
 34  35 0
 6-311+G(2d,p)
 ****
 1  2  14  15  16  17  18  19  20  22  24  25  26 0
 3-21G
 ****
 31  33  36  37  38  39  40  41  42  43  44  45  46 0
 3-21G
 ****


