%nproc=1
%NoSave
%Mem=1900MB
#P OB98/GEN NMR

erre ene a

0 1
  C      559.679     275.532     289.442
  O      558.890     274.901     288.453
  H      560.620     274.984     289.578
  H      559.911     276.548     289.116
  H      559.136     275.576     290.390
  P      558.470     273.375     288.729
  C      559.744     271.106     288.613
  O      559.800     272.517     288.450
  C      560.226     270.431     287.333
  O      559.241     270.595     286.283
  C      561.518     271.015     286.778
  O      562.670     270.490     287.428
  C      561.443     270.561     285.332
  O      561.787     269.165     285.244
  C      559.953     270.763     285.024
  N      556.738     273.403     282.040
  C      556.742     272.115     282.442
  N      557.622     271.490     283.252
  C      558.567     272.350     283.670
  C      558.687     273.693     283.352
  C      557.717     274.224     282.488
  N      557.729     275.527     282.052
  N      559.805     274.237     283.956
  C      560.333     273.244     284.645
  N      559.641     272.076     284.480
  O      557.540     273.005     287.477
  O      557.821     273.101     290.043
  H      562.659     269.059     285.679
  H      557.049     272.178     287.653
  H      555.933     271.495     282.057
  H      561.219     273.319     285.267
  H      559.565     270.020     284.318
  H      562.132     271.102     284.681
  H      561.514     272.113     286.813
  H      560.329     269.355     287.528
  H      558.708     270.812     288.815
  H      557.077     275.774     281.321
  H      558.526     276.104     282.263
  H      560.372     270.811     289.453
  P      564.098     271.094     287.001
  C      566.016     270.325     285.412
  O      564.663     270.135     285.836
  O      565.025     270.734     288.255
  O      564.091     272.552     286.699
  H      565.709     271.414     288.386
  H      566.250     269.623     284.639
  H      566.674     270.174     286.242
  H      566.136     271.320     285.038

 6  7  8  9  10  11  12  13  14  15  25  28  32  33  34  35 0
 6-311+G(2d,p)
 ****
 36  39  40 0
 6-311+G(2d,p)
 ****
 1  2  3  4  5  16  17  18  19  20  21  22  23  24 0
 3-21G
 ****
 26  27  29  30  31  37  38  41  42  43  44  45  46  47 0
 3-21G
 ****
 48 0
 3-21G
 ****


