%nproc=1
%NoSave
%Mem=1900MB
#P OB98/GEN NMR

erre ene a

0 1
  C      578.050    -221.742    -513.404
  O      578.837    -220.773    -514.096
  P      580.427    -220.687    -514.019
  C      580.334    -219.844    -511.527
  O      580.853    -220.766    -512.483
  C      580.775    -220.157    -510.105
  O      582.198    -220.411    -510.059
  C      580.537    -218.930    -509.187
  O      579.254    -218.701    -508.631
  C      581.676    -218.970    -508.165
  O      581.282    -219.637    -506.964
  C      582.770    -219.753    -508.897
  N      587.060    -217.432    -507.393
  C      586.145    -218.119    -506.638
  N      586.353    -218.158    -505.299
  N      585.084    -218.718    -507.144
  C      584.945    -218.522    -508.473
  C      585.776    -217.839    -509.336
  C      586.987    -217.231    -508.775
  O      587.840    -216.628    -509.398
  N      585.291    -217.841    -510.630
  C      584.164    -218.501    -510.536
  N      583.897    -218.925    -509.259
  O      581.050    -219.592    -514.833
  O      580.912    -222.102    -514.630
  H      580.845    -220.480    -507.225
  H      581.778    -221.925    -515.087
  H      587.866    -217.013    -506.952
  H      583.488    -218.682    -511.360
  H      583.163    -220.555    -508.257
  H      581.985    -217.959    -507.890
  H      587.091    -217.647    -504.846
  H      580.726    -218.031    -509.795
  H      585.584    -218.473    -504.729
  H      580.294    -221.054    -509.711
  H      579.240    -219.894    -511.614
  H      580.626    -218.823    -511.800
  P      578.133    -217.701    -509.208
  C      578.664    -215.729    -507.647
  O      578.648    -216.205    -509.003
  O      576.938    -217.830    -508.148
  O      577.665    -218.019    -510.591
  H      576.107    -217.475    -508.534
  H      578.726    -214.633    -507.653
  H      579.541    -216.115    -507.154
  H      577.753    -216.046    -507.127
  H      577.015    -221.583    -513.623
  H      578.210    -221.645    -512.351
  H      578.335    -222.724    -513.719

 3  4  5  6  7  8  9  10  11  12  23  26  30  31 0
 6-311+G(2d,p)
 ****
 33  35  36  37  38 0
 6-311+G(2d,p)
 ****
 1  2  13  14  15  16  17  18  19  20  21  22  24  25 0
 3-21G
 ****
 27  28  29  32  34  39  40  41  42  43  44  45  46  47  48  49 0
 3-21G
 ****


