%nproc=1
%NoSave
%Mem=1900MB
#P OB98/GEN NMR

erre ene a

0 1
  C       69.043     -31.870      49.819
  O       69.939     -32.378      48.845
  P       71.489     -31.962      48.864
  C       71.146     -30.668      46.668
  O       71.607     -30.605      48.013
  C       71.342     -29.325      45.968
  O       70.611     -28.308      46.695
  C       72.801     -28.881      45.904
  O       73.023     -28.201      44.666
  C       72.938     -27.872      47.033
  O       74.000     -26.938      46.773
  C       71.533     -27.262      47.065
  N       71.836     -23.312      50.332
  C       72.285     -23.468      49.068
  N       72.193     -24.554      48.268
  C       71.505     -25.531      48.878
  C       70.980     -25.517      50.163
  C       71.170     -24.339      50.908
  N       70.698     -24.177      52.194
  N       70.365     -26.720      50.454
  C       70.498     -27.435      49.358
  N       71.170     -26.759      48.375
  O       72.434     -33.037      48.452
  O       71.755     -31.475      50.363
  H       74.242     -26.532      47.630
  H       72.641     -31.760      50.660
  H       72.794     -22.606      48.640
  H       70.140     -28.445      49.229
  H       71.430     -26.446      46.337
  H       73.171     -28.396      47.968
  H       73.504     -29.714      46.005
  H       70.910     -29.386      44.962
  H       70.080     -30.914      46.681
  H       70.773     -23.260      52.603
  H       70.056     -24.871      52.556
  H       71.679     -31.463      46.137
  P       74.566     -27.988      44.247
  C       74.499     -25.653      45.398
  O       75.126     -26.912      45.292
  O       74.712     -27.672      42.794
  O       75.204     -29.386      44.696
  H       74.679     -29.810      45.411
  H       75.045     -25.050      46.129
  H       73.470     -25.771      45.746
  H       74.511     -25.136      44.433
  H       68.063     -32.260      49.640
  H       69.018     -30.802      49.758
  H       69.371     -32.165      50.794

 3  4  5  6  7  8  9  10  11  12  22  25  29  30  31  32 0
 6-311+G(2d,p)
 ****
 33  36  37 0
 6-311+G(2d,p)
 ****
 1  2  13  14  15  16  17  18  19  20  21  23  24  26 0
 3-21G
 ****
 27  28  34  35  38  39  40  41  42  43  44  45  46  47  48 0
 3-21G
 ****


