%nproc=1
%NoSave
%Mem=1900MB
#P OB98/GEN NMR

erre ene a

0 1
  C      135.999    -468.716    -160.921
  O      136.499    -469.325    -159.748
  H      135.851    -469.463    -161.701
  H      135.032    -468.252    -160.690
  H      136.684    -467.936    -161.268
  P      137.922    -470.061    -159.871
  C      136.951    -471.275    -157.784
  O      138.119    -470.874    -158.496
  C      137.289    -471.425    -156.304
  O      138.152    -472.563    -156.101
  C      138.021    -470.223    -155.701
  O      137.133    -469.168    -155.361
  C      138.614    -470.868    -154.464
  O      137.604    -471.019    -153.438
  C      139.048    -472.244    -154.992
  N      143.966    -472.485    -153.572
  C      142.823    -472.435    -152.857
  N      141.549    -472.368    -153.308
  C      141.528    -472.361    -154.645
  C      142.608    -472.385    -155.520
  C      143.879    -472.464    -154.926
  N      145.051    -472.493    -155.653
  N      142.184    -472.318    -156.832
  C      140.864    -472.271    -156.762
  N      140.423    -472.283    -155.466
  O      138.978    -468.858    -159.734
  O      138.126    -470.861    -161.114
  H      137.353    -470.127    -153.148
  H      139.843    -469.127    -160.109
  H      142.936    -472.459    -151.776
  H      140.196    -472.238    -157.615
  H      138.923    -473.036    -154.238
  H      139.425    -470.277    -154.024
  H      138.826    -469.881    -156.357
  H      136.339    -471.622    -155.763
  H      136.602    -472.236    -158.177
  H      145.908    -472.375    -155.140
  H      145.005    -472.324    -156.655
  H      136.156    -470.532    -157.931
  P      137.144    -467.870    -156.301
  C      136.647    -466.136    -154.424
  O      136.165    -466.811    -155.586
  O      136.297    -468.346    -157.580
  O      138.502    -467.374    -156.671
  H      136.549    -467.843    -158.380
  H      135.893    -465.469    -154.061
  H      137.526    -465.579    -154.674
  H      136.883    -466.854    -153.667

 6  7  8  9  10  11  12  13  14  15  25  28  32  33  34  35 0
 6-311+G(2d,p)
 ****
 36  39  40 0
 6-311+G(2d,p)
 ****
 1  2  3  4  5  16  17  18  19  20  21  22  23  24 0
 3-21G
 ****
 26  27  29  30  31  37  38  41  42  43  44  45  46  47 0
 3-21G
 ****
 48 0
 3-21G
 ****


