%nproc=1
%NoSave
%Mem=1900MB
#P OB98/GEN NMR

erre ene a

0 1
  C      151.395     372.276    -448.290
  O      150.101     372.095    -447.701
  P      149.011     371.296    -448.583
  C      147.734     373.233    -449.742
  O      147.710     372.222    -448.742
  C      147.499     374.631    -449.149
  O      146.194     374.719    -448.527
  C      148.539     375.032    -448.097
  O      148.737     376.443    -448.208
  C      147.821     374.735    -446.789
  O      148.404     375.459    -445.712
  C      146.379     375.138    -447.162
  N      145.382     374.557    -446.268
  C      144.677     375.433    -445.440
  O      144.953     376.639    -445.426
  N      143.697     374.934    -444.614
  C      143.484     373.652    -444.576
  N      142.508     373.213    -443.741
  C      144.246     372.683    -445.393
  C      145.151     373.192    -446.204
  O      148.528     370.126    -447.603
  O      149.567     370.746    -449.855
  H      148.339     376.422    -445.915
  H      148.561     369.268    -448.061
  H      144.044     371.617    -445.318
  H      145.766     372.563    -446.837
  H      146.261     376.231    -447.126
  H      147.873     373.663    -446.555
  H      149.490     374.508    -448.206
  H      147.521     375.353    -449.975
  H      142.001     373.907    -443.202
  H      146.965     373.024    -450.490
  H      142.259     372.242    -443.630
  H      148.692     373.185    -450.272
  P      150.113     376.966    -448.829
  C      151.043     377.557    -446.504
  O      150.656     378.056    -447.777
  O      149.581     377.931    -450.008
  O      151.096     375.969    -449.338
  H      150.338     378.262    -450.525
  H      151.501     378.369    -445.935
  H      151.772     376.748    -446.620
  H      150.162     377.198    -445.956
  H      152.023     372.816    -447.612
  H      151.298     372.827    -449.202
  H      151.830     371.320    -448.495

 3  4  5  6  7  8  9  10  11  12  13  21  23  27  28  29  30  32 0
 6-311+G(2d,p)
 ****
 34  35 0
 6-311+G(2d,p)
 ****
 1  2  14  15  16  17  18  19  20  22  24  25  26 0
 3-21G
 ****
 31  33  36  37  38  39  40  41  42  43  44  45  46 0
 3-21G
 ****


