%nproc=1
%NoSave
%Mem=1900MB
#P OB98/GEN NMR

erre ene a

0 1
  C     1067.931    -177.368     511.350
  O     1068.664    -178.467     510.852
  H     1068.568    -176.784     512.020
  H     1067.063    -177.715     511.904
  H     1067.615    -176.726     510.523
  P     1067.881    -179.508     509.924
  C     1065.772    -180.998     510.300
  O     1066.891    -180.336     510.891
  C     1065.671    -182.411     510.852
  O     1065.238    -182.368     512.239
  C     1064.647    -183.276     510.121
  O     1065.138    -183.800     508.903
  C     1064.422    -184.376     511.163
  O     1065.416    -185.404     511.062
  C     1064.539    -183.619     512.499
  N     1063.228    -183.388     513.103
  C     1063.193    -183.501     514.493
  O     1064.174    -183.774     515.174
  N     1061.961    -183.335     515.068
  C     1060.783    -183.110     514.410
  O     1059.705    -183.019     514.973
  C     1060.889    -183.005     512.947
  C     1062.075    -183.156     512.362
  O     1069.010    -180.572     509.530
  O     1067.234    -178.911     508.725
  H     1069.267    -180.445     508.597
  H     1066.289    -184.951     511.118
  H     1061.915    -183.419     516.063
  H     1059.977    -182.839     512.388
  H     1062.184    -183.107     511.275
  H     1065.160    -184.174     513.201
  H     1063.457    -184.856     511.031
  H     1063.706    -182.732     509.986
  H     1066.675    -182.870     510.814
  H     1065.899    -181.030     509.212
  H     1064.870    -180.414     510.536
  P     1064.103    -183.893     507.675
  C     1061.775    -185.069     507.404
  O     1062.992    -184.943     508.116
  O     1065.005    -184.672     506.596
  O     1063.615    -182.559     507.206
  H     1065.686    -185.248     507.040
  H     1061.171    -185.825     507.861
  H     1061.982    -185.341     506.390
  H     1061.252    -184.136     507.423

 6  7  8  9  10  11  12  13  14  15  16  27  31  32  33  34  35 0
 6-311+G(2d,p)
 ****
 36  37 0
 6-311+G(2d,p)
 ****
 1  2  3  4  5  17  18  19  20  21  22  23  24  25 0
 3-21G
 ****
 26  28  29  30  38  39  40  41  42  43  44  45 0
 3-21G
 ****


