%nproc=1
%NoSave
%Mem=1900MB
#P OB98/GEN NMR

erre ene a

0 1
  C     -753.030     768.422    -107.260
  O     -753.126     769.839    -107.331
  P     -752.416     770.567    -108.562
  C     -750.613     771.780    -107.155
  O     -750.887     770.785    -108.127
  C     -749.188     772.304    -107.307
  O     -748.262     771.389    -106.703
  C     -748.727     772.460    -108.764
  O     -749.197     773.665    -109.341
  C     -747.217     772.490    -108.578
  O     -746.799     773.817    -108.204
  C     -746.997     771.513    -107.407
  N     -743.107     768.693    -109.031
  C     -743.148     770.022    -108.662
  N     -741.978     770.699    -108.718
  N     -744.231     770.640    -108.300
  C     -745.317     769.831    -108.252
  C     -745.404     768.500    -108.577
  C     -744.207     767.844    -109.047
  O     -744.130     766.679    -109.440
  N     -746.683     768.028    -108.385
  C     -747.349     769.050    -107.906
  N     -746.570     770.186    -107.824
  O     -753.027     772.048    -108.512
  O     -752.638     769.917    -109.892
  H     -746.819     774.367    -109.005
  H     -752.991     772.452    -109.405
  H     -742.234     768.250    -109.284
  H     -748.393     769.018    -107.604
  H     -746.267     771.897    -106.692
  H     -746.669     772.243    -109.494
  H     -741.088     770.248    -108.878
  H     -749.007     771.577    -109.354
  H     -741.971     771.667    -108.434
  H     -749.109     773.269    -106.772
  H     -750.725     771.358    -106.152
  H     -751.335     772.601    -107.268
  P     -749.520     773.633    -110.914
  C     -747.120     774.341    -111.626
  O     -748.111     773.332    -111.623
  O     -749.816     775.166    -111.266
  O     -750.655     772.726    -111.286
  H     -750.386     775.224    -112.042
  H     -747.138     774.919    -110.695
  H     -747.289     775.015    -112.470
  H     -746.133     773.872    -111.730
  H     -753.548     768.073    -106.391
  H     -752.000     768.137    -107.201
  H     -753.470     767.990    -108.135

 3  4  5  6  7  8  9  10  11  12  23  26  30  31  33  0
 6-311+G(2d,p)
 ****
 35  36  37  38 0
 6-311+G(2d,p)
 ****
 1  2  13  14  15  16  17  18  19  20  21  22  24  25  27  28  29 0
 3-21G
 ****
 32  34  39  40  41  42  43  44  45  46  47  48  49 0
 3-21G
 ****


