%nproc=1
%NoSave
%Mem=1900MB
#P OB98/GEN NMR

erre ene a

0 1
  C      948.360    1369.056    -721.248
  O      947.942    1370.327    -721.741
  P      947.277    1370.309    -723.219
  C      944.825    1370.487    -722.309
  O      945.780    1369.720    -723.062
  C      943.440    1370.397    -722.916
  O      943.446    1370.836    -724.323
  C      942.835    1368.985    -722.878
  O      941.426    1369.135    -722.685
  C      943.126    1368.504    -724.281
  O      942.342    1367.355    -724.651
  C      942.834    1369.773    -725.074
  N      941.919    1368.065    -729.789
  C      941.245    1367.947    -728.663
  N      941.547    1368.429    -727.440
  C      942.722    1369.104    -727.467
  C      943.530    1369.314    -728.574
  C      943.117    1368.761    -729.807
  N      943.830    1368.867    -730.965
  N      944.662    1370.046    -728.196
  C      944.569    1370.196    -726.912
  N      943.363    1369.736    -726.446
  O      948.064    1369.142    -723.944
  O      947.386    1371.588    -723.910
  H      941.427    1367.552    -724.579
  H      948.768    1369.500    -724.503
  H      940.321    1367.399    -728.728
  H      945.288    1370.648    -726.242
  H      941.755    1369.981    -725.174
  H      944.144    1368.183    -724.368
  H      943.261    1368.315    -722.078
  H      942.783    1371.113    -722.365
  H      945.153    1371.546    -722.272
  H      943.456    1368.457    -731.801
  H      944.712    1369.363    -730.992
  H      944.855    1370.156    -721.277
  P      940.865    1368.973    -721.196
  C      940.544    1371.440    -720.571
  O      941.353    1370.290    -720.393
  O      941.845    1367.828    -720.573
  O      939.376    1368.606    -721.077
  H      942.748    1368.066    -720.760
  H      940.934    1372.242    -719.918
  H      939.497    1371.225    -720.232
  H      940.590    1371.781    -721.616
  H      948.783    1369.173    -720.272
  H      949.094    1368.642    -721.907
  H      947.517    1368.399    -721.195

 3  4  5  6  7  8  9  10  11  12  22  25  29  30  31  32 0
 6-311+G(2d,p)
 ****
 33  36  37 0
 6-311+G(2d,p)
 ****
 1  2  13  14  15  16  17  18  19  20  21  23  24  26 0
 3-21G
 ****
 27  28  34  35  38  39  40  41  42  43  44  45  46  47  48 0
 3-21G
 ****


