%nproc=1
%NoSave
%Mem=1900MB
#P OB98/GEN NMR

erre ene a

0 1
  C     -160.079    -465.491     320.869
  O     -159.768    -466.092     319.634
  H     -160.588    -466.230     321.494
  H     -160.754    -464.645     320.724
  H     -159.169    -465.166     321.379
  P     -159.051    -465.221     318.489
  C     -160.426    -465.219     316.317
  O     -159.462    -465.919     317.098
  C     -161.551    -466.154     315.859
  O     -161.031    -467.080     314.869
  C     -162.158    -466.987     316.999
  O     -163.587    -466.937     316.925
  C     -161.685    -468.405     316.701
  O     -162.534    -469.402     317.252
  C     -161.609    -468.367     315.170
  N     -160.823    -469.466     314.632
  C     -161.453    -470.724     314.607
  O     -162.604    -470.840     315.020
  N     -160.743    -471.811     314.180
  C     -159.494    -471.673     313.837
  N     -158.843    -472.794     313.441
  C     -158.789    -470.379     313.880
  C     -159.502    -469.327     314.275
  O     -157.586    -465.018     318.692
  O     -159.873    -463.843     318.447
  H     -162.131    -470.282     317.088
  H     -159.302    -463.145     318.048
  H     -157.744    -470.313     313.591
  H     -159.068    -468.330     314.332
  H     -162.610    -468.399     314.727
  H     -160.680    -468.539     317.118
  H     -161.846    -466.652     317.989
  H     -162.317    -465.551     315.354
  H     -159.365    -473.658     313.441
  H     -159.914    -464.776     315.454
  H     -157.864    -472.818     313.182
  H     -160.851    -464.422     316.940
  P     -164.370    -466.914     318.327
  C     -166.397    -468.187     317.314
  O     -165.943    -467.043     318.021
  O     -164.194    -465.406     318.822
  O     -163.828    -467.883     319.320
  H     -163.593    -465.370     319.594
  H     -167.458    -468.130     317.188
  H     -166.150    -469.069     317.867
  H     -165.925    -468.224     316.354

 6  7  8  9  10  11  12  13  14  15  16  26  30  31  32  33  35 0
 6-311+G(2d,p)
 ****
 37  38 0
 6-311+G(2d,p)
 ****
 1  2  3  4  5  17  18  19  20  21  22  23  24  25 0
 3-21G
 ****
 27  28  29  34  36  39  40  41  42  43  44  45  46 0
 3-21G
 ****


