%nproc=1
%NoSave
%Mem=1900MB
#P OB98/GEN NMR

erre ene a

0 1
  C     1145.800    -466.524     181.727
  O     1146.677    -467.279     180.896
  P     1146.746    -467.092     179.288
  C     1149.360    -467.076     179.143
  O     1148.131    -466.392     178.944
  C     1150.213    -466.465     180.302
  O     1149.570    -466.774     181.574
  C     1151.581    -467.115     180.353
  O     1152.623    -466.633     179.511
  C     1151.948    -467.151     181.856
  O     1152.734    -466.010     182.241
  C     1150.556    -467.113     182.536
  N     1151.700    -470.477     186.228
  C     1152.365    -469.362     185.853
  N     1153.500    -469.068     186.534
  N     1151.956    -468.532     184.915
  C     1150.829    -468.971     184.238
  C     1150.097    -470.078     184.517
  C     1150.528    -470.954     185.639
  O     1149.939    -471.939     185.996
  N     1149.048    -470.207     183.648
  C     1149.152    -469.172     182.860
  N     1150.282    -468.370     183.188
  O     1145.505    -466.552     178.637
  O     1146.955    -468.625     178.769
  H     1152.137    -465.260     182.309
  H     1146.483    -468.662     177.894
  H     1152.032    -471.061     186.985
  H     1148.483    -468.949     182.030
  H     1150.533    -466.351     183.314
  H     1152.553    -468.038     182.091
  H     1153.917    -469.722     187.180
  H     1151.438    -468.196     180.087
  H     1154.094    -468.355     186.104
  H     1150.234    -465.367     180.248
  H     1149.929    -467.018     178.215
  H     1149.184    -468.136     179.324
  P     1153.196    -467.386     178.208
  C     1152.619    -465.712     176.327
  O     1152.271    -466.917     176.959
  O     1152.781    -468.920     178.418
  O     1154.682    -467.232     177.988
  H     1153.298    -469.490     177.813
  H     1151.788    -465.362     175.739
  H     1153.489    -465.881     175.654
  H     1152.888    -464.919     177.081
  H     1145.932    -466.820     182.747
  H     1144.787    -466.703     181.432
  H     1146.022    -465.482     181.627

 3  4  5  6  7  8  9  10  11  12  23  26  30  31 0
 6-311+G(2d,p)
 ****
 33  35  36  37  38 0
 6-311+G(2d,p)
 ****
 1  2  13  14  15  16  17  18  19  20  21  22  24  25 0
 3-21G
 ****
 27  28  29  32  34  39  40  41  42  43  44  45  46  47  48  49 0
 3-21G
 ****


