%nproc=1
%NoSave
%Mem=1900MB
#P OB98/GEN NMR

erre ene a

0 1
  C      460.983      25.882    1326.714
  O      460.586      25.637    1325.375
  P      460.464      26.926    1324.402
  C      457.863      27.168    1324.323
  O      459.049      26.789    1323.657
  C      456.769      27.467    1323.304
  O      457.160      28.598    1322.481
  C      456.480      26.310    1322.326
  O      455.619      25.372    1322.928
  C      455.863      27.063    1321.157
  O      454.467      27.340    1321.396
  C      456.688      28.349    1321.121
  N      458.585      30.141    1316.781
  C      457.322      30.274    1317.319
  N      456.442      31.046    1316.619
  N      456.944      29.725    1318.441
  C      457.901      28.977    1319.022
  C      459.204      28.749    1318.570
  C      459.614      29.413    1317.364
  O      460.752      29.405    1316.900
  N      459.892      27.920    1319.420
  C      459.023      27.670    1320.398
  N      457.827      28.306    1320.208
  O      461.546      26.616    1323.262
  O      460.692      28.242    1325.076
  H      454.087      27.811    1320.628
  H      462.376      27.101    1323.439
  H      458.816      30.612    1315.925
  H      459.240      27.063    1321.257
  H      456.087      29.217    1320.825
  H      455.899      26.470    1320.226
  H      456.655      31.472    1315.738
  H      457.416      25.832    1322.016
  H      455.515      31.154    1317.000
  H      455.857      27.739    1323.839
  H      458.048      28.056    1324.924
  H      457.543      26.347    1324.997
  P      456.097      23.834    1322.985
  C      455.619      23.236    1320.508
  O      455.276      23.049    1321.863
  O      455.493      23.308    1324.361
  O      457.580      23.663    1322.932
  H      456.118      22.665    1324.775
  H      455.383      22.311    1319.949
  H      456.692      23.452    1320.370
  H      455.024      24.052    1320.083
  H      461.025      24.956    1327.249
  H      460.274      26.532    1327.183
  H      461.949      26.342    1326.721

 3  4  5  6  7  8  9  10  11  12  23  26  30  31 0
 6-311+G(2d,p)
 ****
 33  35  36  37  38 0
 6-311+G(2d,p)
 ****
 1  2  13  14  15  16  17  18  19  20  21  22  24  25 0
 3-21G
 ****
 27  28  29  32  34  39  40  41  42  43  44  45  46  47  48  49 0
 3-21G
 ****


