%nproc=1
%NoSave
%Mem=1900MB
#P OB98/GEN NMR

erre ene a

0 1
  C     -761.046     324.343      71.767
  O     -760.844     322.943      71.770
  H     -760.399     324.793      72.528
  H     -762.085     324.578      72.009
  H     -760.788     324.759      70.791
  P     -761.787     322.088      70.792
  C     -760.255     321.231      68.861
  O     -761.097     322.268      69.353
  C     -759.410     321.759      67.705
  O     -760.254     322.208      66.618
  C     -758.546     322.960      68.068
  O     -757.369     322.602      68.772
  C     -758.232     323.500      66.686
  O     -757.230     322.672      66.058
  C     -759.601     323.336      65.987
  N     -760.438     324.534      66.080
  C     -760.231     325.524      65.109
  O     -759.375     325.376      64.238
  N     -760.978     326.671      65.170
  C     -761.865     326.822      66.102
  N     -762.571     327.989      66.119
  C     -762.127     325.803      67.134
  C     -761.389     324.697      67.061
  O     -763.105     322.988      70.656
  O     -762.042     320.673      71.196
  H     -757.274     322.856      65.101
  H     -763.703     322.603      69.968
  H     -762.873     325.975      67.899
  H     -761.521     323.903      67.787
  H     -759.472     323.085      64.925
  H     -757.843     324.521      66.695
  H     -759.115     323.718      68.618
  H     -758.801     320.927      67.325
  H     -762.324     328.697      65.439
  H     -760.885     320.408      68.518
  H     -763.139     328.265      66.907
  H     -759.597     320.875      69.655
  P     -757.006     323.440      70.094
  C     -757.707     321.622      71.815
  O     -757.974     322.906      71.265
  O     -757.591     324.890      69.777
  O     -755.549     323.482      70.433
  H     -757.003     325.593      70.113
  H     -758.426     321.404      72.576
  H     -756.725     321.613      72.239
  H     -757.769     320.883      71.043

 6  7  8  9  10  11  12  13  14  15  16  26  30  31  32  33  35 0
 6-311+G(2d,p)
 ****
 37  38 0
 6-311+G(2d,p)
 ****
 1  2  3  4  5  17  18  19  20  21  22  23  24  25 0
 3-21G
 ****
 27  28  29  34  36  39  40  41  42  43  44  45  46 0
 3-21G
 ****


