%nproc=1
%NoSave
%Mem=1900MB
#P OB98/GEN NMR

erre ene a

0 1
  C     1186.006    -118.375    -927.140
  O     1185.579    -119.693    -926.843
  P     1184.187    -119.889    -926.058
  C     1182.742    -120.590    -928.093
  O     1183.012    -119.591    -927.114
  C     1181.245    -120.652    -928.423
  O     1180.523    -121.125    -927.254
  C     1180.622    -119.300    -928.809
  O     1179.595    -119.568    -929.760
  C     1179.998    -118.820    -927.505
  O     1178.972    -117.850    -927.731
  C     1179.503    -120.157    -926.942
  N     1176.145    -121.026    -923.175
  C     1176.079    -121.215    -924.513
  N     1177.008    -120.967    -925.455
  C     1178.124    -120.447    -924.900
  C     1178.325    -120.161    -923.562
  C     1177.285    -120.481    -922.668
  N     1177.354    -120.279    -921.309
  N     1179.576    -119.617    -923.373
  C     1180.116    -119.574    -924.570
  N     1179.283    -120.095    -925.503
  O     1184.154    -118.610    -925.093
  O     1184.067    -121.154    -925.285
  H     1179.393    -117.047    -928.097
  H     1184.255    -118.900    -924.160
  H     1175.148    -121.650    -924.875
  H     1181.095    -119.180    -924.796
  H     1178.567    -120.486    -927.415
  H     1180.762    -118.373    -926.865
  H     1181.338    -118.579    -929.217
  H     1181.106    -121.384    -929.217
  H     1183.058    -121.563    -927.700
  H     1176.630    -120.661    -920.726
  H     1178.249    -120.062    -920.896
  H     1183.325    -120.376    -928.991
  P     1179.691    -118.810    -931.182
  C     1181.011    -120.775    -932.249
  O     1180.987    -119.388    -931.915
  O     1180.127    -117.329    -930.766
  O     1178.420    -118.826    -931.971
  H     1179.809    -116.695    -931.440
  H     1181.582    -120.900    -933.176
  H     1180.010    -121.175    -932.379
  H     1181.511    -121.320    -931.445
  H     1186.941    -118.411    -927.660
  H     1186.125    -117.825    -926.230
  H     1185.275    -117.893    -927.755

 3  4  5  6  7  8  9  10  11  12  22  25  29  30  31  32 0
 6-311+G(2d,p)
 ****
 33  36  37 0
 6-311+G(2d,p)
 ****
 1  2  13  14  15  16  17  18  19  20  21  23  24  26 0
 3-21G
 ****
 27  28  34  35  38  39  40  41  42  43  44  45  46  47  48 0
 3-21G
 ****


