%nproc=1
%NoSave
%Mem=1900MB
#P OB98/GEN NMR

erre ene a

0 1
  C      293.927     797.240     244.819
  O      294.780     796.168     245.167
  H      293.093     796.872     244.214
  H      293.526     797.684     245.732
  H      294.484     797.999     244.262
  P      295.444     795.346     243.961
  C      296.641     794.202     245.959
  O      296.196     794.078     244.612
  C      296.821     792.817     246.571
  O      295.523     792.339     247.014
  C      297.422     791.763     245.620
  O      298.625     791.220     246.181
  C      296.378     790.663     245.569
  O      296.942     789.354     245.582
  C      295.524     790.919     246.812
  N      292.258     787.271     248.225
  C      293.377     787.748     248.815
  N      294.140     788.796     248.442
  C      293.640     789.394     247.344
  C      292.498     789.025     246.649
  C      291.803     787.899     247.115
  N      290.695     787.379     246.479
  N      292.304     789.861     245.562
  C      293.329     790.688     245.586
  N      294.179     790.425     246.636
  O      296.642     796.297     243.483
  O      294.524     795.019     242.834
  H      296.198     788.725     245.527
  H      296.628     796.390     242.518
  H      293.704     787.217     249.707
  H      293.549     791.456     244.844
  H      295.953     790.446     247.707
  H      295.781     790.782     244.652
  H      297.617     792.160     244.618
  H      297.446     792.919     247.473
  H      295.900     794.761     246.536
  H      290.332     786.506     246.819
  H      290.415     787.782     245.596
  H      297.583     794.766     245.975
  P      300.011     791.909     245.715
  C      301.683     791.476     247.672
  O      301.204     791.078     246.387
  O      300.017     793.289     246.545
  O      300.110     792.141     244.239
  H      300.535     793.965     246.075
  H      302.474     790.823     247.976
  H      300.884     791.423     248.382
  H      302.049     792.480     247.621

 6  7  8  9  10  11  12  13  14  15  25  28  32  33  34  35 0
 6-311+G(2d,p)
 ****
 36  39  40 0
 6-311+G(2d,p)
 ****
 1  2  3  4  5  16  17  18  19  20  21  22  23  24 0
 3-21G
 ****
 26  27  29  30  31  37  38  41  42  43  44  45  46  47  48 0
 3-21G
 ****


