%nproc=1
%NoSave
%Mem=1900MB
#P OB98/GEN NMR

erre ene a

0 1
  C      -16.969      -1.094      59.414
  O      -17.210      -2.268      58.663
  H      -16.724      -1.381      60.440
  H      -17.866      -0.470      59.427
  H      -16.129      -0.537      58.991
  P      -17.407      -2.081      57.078
  C      -19.267      -2.940      55.438
  O      -18.882      -2.625      56.764
  C      -20.545      -3.779      55.436
  O      -20.230      -5.107      55.922
  C      -21.658      -3.211      56.316
  O      -22.911      -3.447      55.673
  C      -21.563      -4.037      57.587
  O      -22.797      -4.056      58.302
  C      -21.096      -5.392      57.039
  N      -20.412      -6.195      58.051
  C      -21.213      -6.776      59.039
  O      -22.429      -6.586      59.042
  N      -20.616      -7.522      60.023
  C      -19.323      -7.621      60.061
  N      -18.791      -8.356      61.074
  C      -18.436      -6.979      59.071
  C      -19.041      -6.299      58.100
  O      -16.447      -3.220      56.496
  O      -17.110      -0.706      56.583
  H      -22.783      -4.829      58.910
  H      -16.492      -4.056      56.988
  H      -17.363      -7.078      59.154
  H      -18.466      -5.803      57.326
  H      -21.949      -5.969      56.660
  H      -20.798      -3.614      58.250
  H      -21.548      -2.147      56.522
  H      -20.880      -3.896      54.399
  H      -19.433      -8.763      61.742
  H      -18.469      -3.491      54.932
  H      -17.799      -8.456      61.230
  H      -19.428      -2.001      54.900
  P      -23.777      -2.200      55.163
  C      -25.422      -0.493      56.177
  O      -24.777      -1.747      56.334
  O      -24.406      -2.352      53.819
  O      -22.704      -1.003      55.151
  H      -22.883      -0.448      54.367
  H      -26.056      -0.310      57.019
  H      -26.010      -0.504      55.283
  H      -24.686       0.281      56.110

 6  7  8  9  10  11  12  13  14  15  16  26  30  31  32  33  35 0
 6-311+G(2d,p)
 ****
 37  38 0
 6-311+G(2d,p)
 ****
 1  2  3  4  5  17  18  19  20  21  22  23  24  25 0
 3-21G
 ****
 27  28  29  34  36  39  40  41  42  43  44  45  46 0
 3-21G
 ****


