%nproc=1
%NoSave
%Mem=1900MB
#P OB98/GEN NMR

erre ene a

0 1
  C      229.020    -285.538      17.884
  O      228.243    -285.140      18.990
  H      230.062    -285.256      18.067
  H      228.671    -285.024      16.986
  H      228.973    -286.620      17.729
  P      226.808    -285.811      19.204
  C      227.230    -286.733      21.579
  O      226.491    -285.821      20.779
  C      226.709    -286.780      23.014
  O      227.049    -285.558      23.698
  C      225.184    -286.914      23.079
  O      224.706    -288.247      23.029
  C      224.870    -286.268      24.427
  O      224.935    -287.227      25.495
  C      225.969    -285.217      24.585
  N      223.799    -280.956      26.399
  C      223.925    -282.192      27.008
  N      223.369    -282.309      28.231
  N      224.526    -283.210      26.445
  C      224.943    -282.969      25.185
  C      224.854    -281.795      24.471
  C      224.256    -280.650      25.123
  O      224.135    -279.535      24.637
  N      225.353    -281.939      23.197
  C      225.655    -283.220      23.115
  N      225.500    -283.867      24.322
  O      227.073    -287.364      18.900
  O      225.710    -285.282      18.332
  H      224.110    -287.754      25.481
  H      226.270    -287.765      18.522
  H      223.355    -280.201      26.887
  H      226.033    -283.718      22.227
  H      226.383    -285.216      25.600
  H      223.854    -285.859      24.435
  H      222.823    -281.585      28.670
  H      224.709    -286.316      22.296
  H      223.272    -283.247      28.629
  H      227.205    -287.600      23.553
  H      228.266    -286.384      21.569
  H      227.213    -287.731      21.133
  P      223.297    -288.594      22.357
  C      223.920    -290.681      20.893
  O      223.266    -290.152      22.025
  O      223.415    -287.908      20.916
  O      222.097    -288.120      23.107
  H      222.960    -287.043      20.907
  H      223.774    -291.740      20.859
  H      224.967    -290.467      20.953
  H      223.516    -290.237      20.007

 6  7  8  9  10  11  12  13  14  15  26  29  33  34 0
 6-311+G(2d,p)
 ****
 36  38  39  40  41 0
 6-311+G(2d,p)
 ****
 1  2  3  4  5  16  17  18  19  20  21  22  23  24  25 0
 3-21G
 ****
 27  28  30  31  32  35  37  42  43  44  45  46  47 0
 3-21G
 ****
 48  49 0
 3-21G
 ****


