%nproc=1
%NoSave
%Mem=1900MB
#P OB98/GEN NMR

erre ene a

0 1
  C     -142.975     -29.926      -8.424
  O     -142.651     -30.983      -9.298
  H     -144.026     -30.023      -8.138
  H     -142.845     -28.962      -8.924
  H     -142.361     -29.967      -7.522
  P     -141.171     -31.066      -9.916
  C     -140.506     -33.517      -9.541
  O     -141.026     -32.573     -10.467
  C     -141.172     -34.882      -9.714
  O     -142.533     -34.826      -9.207
  C     -141.242     -35.354     -11.174
  O     -140.814     -36.715     -11.263
  C     -142.723     -35.263     -11.508
  O     -143.110     -36.133     -12.568
  C     -143.346     -35.560     -10.141
  N     -144.749     -35.172     -10.082
  C     -145.646     -35.995     -10.770
  O     -145.237     -36.988     -11.375
  N     -146.971     -35.648     -10.803
  C     -147.361     -34.548     -10.240
  N     -148.683     -34.247     -10.334
  C     -146.443     -33.635      -9.526
  C     -145.164     -34.006      -9.483
  O     -140.085     -30.624      -8.995
  O     -141.241     -30.205     -11.263
  H     -142.690     -35.819     -13.398
  H     -140.330     -29.916     -11.505
  H     -146.818     -32.727      -9.077
  H     -144.417     -33.400      -8.983
  H     -143.266     -36.627      -9.896
  H     -142.962     -34.235     -11.812
  H     -140.641     -34.748     -11.851
  H     -140.641     -35.609      -9.087
  H     -149.275     -34.898     -10.838
  H     -140.669     -33.137      -8.525
  H     -149.097     -33.408      -9.956
  H     -139.431     -33.618      -9.719
  P     -139.949     -37.103     -12.558
  C     -138.375     -38.925     -11.590
  O     -139.497     -38.636     -12.411
  O     -138.593     -36.278     -12.357
  O     -140.618     -36.756     -13.846
  H     -138.545     -35.557     -13.013
  H     -138.196     -39.980     -11.590
  H     -138.570     -38.596     -10.591
  H     -137.514     -38.417     -11.971

 6  7  8  9  10  11  12  13  14  15  16  26  30  31  32  33  35 0
 6-311+G(2d,p)
 ****
 37  38 0
 6-311+G(2d,p)
 ****
 1  2  3  4  5  17  18  19  20  21  22  23  24  25 0
 3-21G
 ****
 27  28  29  34  36  39  40  41  42  43  44  45  46 0
 3-21G
 ****


