%nproc=1
%NoSave
%Mem=1900MB
#P OB98/GEN NMR

erre ene a

0 1
  C     -168.112     -33.498      91.601
  O     -168.161     -34.028      92.915
  P     -169.214     -35.207      93.210
  C     -171.814     -35.356      93.313
  O     -170.666     -34.525      93.253
  C     -173.081     -34.543      93.033
  O     -172.994     -33.998      91.690
  C     -174.388     -35.338      93.117
  O     -175.398     -34.435      93.585
  C     -174.661     -35.702      91.668
  O     -176.029     -36.016      91.428
  C     -174.161     -34.446      90.963
  N     -174.712     -32.902      86.178
  C     -175.316     -32.437      87.333
  N     -176.134     -31.371      87.194
  N     -175.130     -32.966      88.515
  C     -174.273     -34.013      88.497
  C     -173.644     -34.588      87.417
  C     -173.830     -33.971      86.123
  O     -173.248     -34.294      85.091
  N     -172.921     -35.694      87.785
  C     -173.046     -35.737      89.096
  N     -173.816     -34.713      89.581
  O     -168.921     -35.571      94.738
  O     -169.126     -36.397      92.307
  H     -176.543     -35.184      91.485
  H     -168.291     -36.315      94.809
  H     -174.879     -32.440      85.299
  H     -172.600     -36.474      89.744
  H     -174.900     -33.635      90.971
  H     -174.062     -36.578      91.388
  H     -176.298     -30.898      86.319
  H     -174.327     -36.214      93.769
  H     -176.562     -30.993      88.030
  H     -173.106     -33.692      93.726
  H     -171.890     -35.782      94.318
  H     -171.712     -36.176      92.595
  P     -176.439     -34.977      94.679
  C     -177.921     -37.100      94.757
  O     -177.371     -36.065      93.966
  O     -177.424     -33.728      94.882
  O     -175.825     -35.383      95.980
  H     -177.746     -33.712      95.800
  H     -178.808     -37.493      94.252
  H     -178.214     -36.737      95.748
  H     -177.189     -37.903      94.868
  H     -167.371     -32.727      91.555
  H     -169.067     -33.090      91.345
  H     -167.860     -34.277      90.912

 3  4  5  6  7  8  9  10  11  12  23  26  30  31 0
 6-311+G(2d,p)
 ****
 33  35  36  37  38 0
 6-311+G(2d,p)
 ****
 1  2  13  14  15  16  17  18  19  20  21  22  24  25 0
 3-21G
 ****
 27  28  29  32  34  39  40  41  42  43  44  45  46  47  48  49 0
 3-21G
 ****


