%nproc=1
%NoSave
%Mem=1900MB
#P OB98/GEN NMR

erre ene a

0 1
  C       -0.346    -138.698    -106.712
  O       -1.067    -137.618    -107.273
  H       -0.452    -139.566    -107.367
  H       -0.744    -138.954    -105.727
  H        0.715    -138.449    -106.631
  P       -1.069    -136.221    -106.489
  C       -1.292    -133.743    -107.178
  O       -1.118    -135.083    -107.618
  C       -0.359    -132.815    -107.949
  O        0.990    -132.943    -107.465
  C       -0.312    -133.092    -109.450
  O       -1.425    -132.501    -110.099
  C        1.010    -132.435    -109.809
  O        0.843    -131.004    -109.860
  C        1.886    -132.824    -108.605
  N        5.689    -135.182    -110.986
  C        5.211    -133.894    -111.136
  N        5.804    -133.144    -112.090
  N        4.227    -133.397    -110.433
  C        3.686    -134.286    -109.569
  C        4.062    -135.590    -109.342
  C        5.188    -136.112    -110.087
  O        5.655    -137.241    -109.972
  N        3.234    -136.202    -108.435
  C        2.383    -135.257    -108.087
  N        2.605    -134.078    -108.758
  O        0.022    -136.024    -105.479
  O       -2.523    -136.148    -105.827
  H        0.398    -130.807    -110.705
  H       -2.517    -136.509    -104.923
  H        6.438    -135.512    -111.572
  H        1.593    -135.371    -107.355
  H        2.627    -132.054    -108.363
  H        1.400    -132.752    -110.775
  H        6.352    -133.560    -112.833
  H       -0.235    -134.164    -109.663
  H        5.436    -132.216    -112.250
  H       -0.675    -131.783    -107.752
  H       -1.063    -133.714    -106.108
  H       -2.329    -133.426    -107.324
  P       -2.252    -133.303    -111.220
  C       -4.144    -132.587    -112.829
  O       -3.476    -132.339    -111.599
  O       -2.645    -134.689    -110.836
  O       -1.336    -133.228    -112.525
  H       -0.681    -133.965    -112.591
  H       -4.934    -131.876    -112.956
  H       -4.553    -133.576    -112.820
  H       -3.449    -132.496    -113.637

 6  7  8  9  10  11  12  13  14  15  26  29  33  34 0
 6-311+G(2d,p)
 ****
 36  38  39  40  41 0
 6-311+G(2d,p)
 ****
 1  2  3  4  5  16  17  18  19  20  21  22  23  24  25 0
 3-21G
 ****
 27  28  30  31  32  35  37  42  43  44  45  46  47 0
 3-21G
 ****
 48  49 0
 3-21G
 ****


