%nproc=1
%NoSave
%Mem=1900MB
#P OB98/GEN NMR

erre ene a

0 1
  C      307.018      20.314      69.614
  O      306.069      19.670      68.788
  P      306.216      18.109      68.447
  C      307.785      16.680      66.985
  O      307.368      17.999      67.332
  C      308.427      16.679      65.599
  O      307.441      16.939      64.563
  C      309.476      17.768      65.401
  O      310.659      17.678      66.167
  C      309.625      17.763      63.886
  O      310.486      16.711      63.450
  C      308.165      17.491      63.435
  N      307.518      18.696      62.916
  C      308.166      19.323      61.853
  O      309.219      18.916      61.359
  N      307.575      20.470      61.388
  C      306.458      21.063      61.900
  O      306.008      22.119      61.463
  C      305.827      20.363      63.032
  C      306.379      19.228      63.483
  O      304.940      17.416      68.091
  O      306.942      17.513      69.744
  H      310.788      16.935      62.547
  H      307.814      17.898      69.936
  H      308.035      20.947      60.629
  H      304.933      20.799      63.454
  H      305.932      18.699      64.316
  H      308.148      16.727      62.646
  H      310.046      18.705      63.518
  H      309.020      18.730      65.674
  H      308.839      15.686      65.412
  H      306.909      16.025      66.968
  H      308.475      16.303      67.745
  P      311.426      18.953      66.754
  C      312.809      20.936      65.810
  O      312.105      19.746      65.536
  O      312.256      18.733      67.980
  O      310.197      19.925      67.127
  H      310.443      20.469      67.900
  H      313.161      21.360      64.868
  H      313.676      20.728      66.452
  H      312.156      21.666      66.297
  H      306.753      21.345      69.725
  H      307.988      20.241      69.167
  H      307.032      19.844      70.575

 3  4  5  6  7  8  9  10  11  12  13  23  28  29  30  31  32 0
 6-311+G(2d,p)
 ****
 33  34 0
 6-311+G(2d,p)
 ****
 1  2  14  15  16  17  18  19  20  21  22  24  25  26  27 0
 3-21G
 ****
 35  36  37  38  39  40  41  42  43  44  45 0
 3-21G
 ****


