%nproc=1
%NoSave
%Mem=1900MB
#P OB98/GEN NMR

erre ene a

0 1
  C     -467.386    -348.593     320.509
  O     -467.549    -348.144     319.180
  H     -466.350    -348.918     320.645
  H     -468.048    -349.438     320.706
  H     -467.594    -347.782     321.212
  P     -468.998    -347.578     318.783
  C     -468.857    -345.292     320.018
  O     -469.435    -346.592     319.972
  C     -469.906    -344.247     319.657
  O     -470.534    -344.607     318.405
  C     -471.045    -344.131     320.665
  O     -470.674    -343.364     321.799
  C     -472.128    -343.471     319.818
  O     -471.956    -342.048     319.758
  C     -471.882    -344.086     318.434
  N     -476.422    -345.091     316.343
  C     -475.706    -343.950     316.444
  N     -474.489    -343.770     317.000
  C     -474.014    -344.931     317.482
  C     -474.633    -346.172     317.460
  C     -475.898    -346.231     316.853
  N     -476.645    -347.385     316.786
  N     -473.850    -347.113     318.095
  C     -472.772    -346.459     318.484
  N     -472.829    -345.141     318.129
  O     -469.946    -348.855     318.981
  O     -469.104    -347.007     317.410
  H     -472.761    -341.687     319.331
  H     -470.059    -349.312     318.127
  H     -476.173    -343.065     316.021
  H     -471.943    -346.890     319.026
  H     -471.958    -343.343     317.631
  H     -473.120    -343.663     320.223
  H     -471.388    -345.127     320.967
  H     -469.406    -343.282     319.523
  H     -468.032    -345.240     319.296
  H     -468.463    -345.115     321.024
  H     -477.553    -347.348     316.358
  H     -476.308    -348.214     317.256
  P     -471.260    -343.781     323.230
  C     -469.106    -344.800     324.280
  O     -470.407    -345.037     323.758
  O     -472.686    -344.416     322.872
  O     -471.379    -342.661     324.206
  H     -473.396    -343.769     323.034
  H     -468.671    -345.728     324.587
  H     -469.174    -344.142     325.121
  H     -468.495    -344.352     323.525

 6  7  8  9  10  11  12  13  14  15  25  28  32  33  34  35 0
 6-311+G(2d,p)
 ****
 36  37  40 0
 6-311+G(2d,p)
 ****
 1  2  3  4  5  16  17  18  19  20  21  22  23  24 0
 3-21G
 ****
 26  27  29  30  31  38  39 41  42  43  44  45  46  47  48 0
 3-21G
 ****


