%nproc=1
%NoSave
%Mem=1900MB
#P OB98/GEN NMR

erre ene a

0 1
  C       93.668     165.156    -104.305
  O       92.971     164.039    -104.818
  H       93.219     165.438    -103.347
  H       93.583     166.004    -104.991
  H       94.722     164.915    -104.141
  P       93.523     163.328    -106.147
  C       94.453     164.257    -108.367
  O       93.527     164.437    -107.304
  C       94.142     165.238    -109.498
  O       92.975     164.804    -110.229
  C       93.829     166.649    -109.016
  O       95.007     167.337    -108.646
  C       93.117     167.216    -110.237
  O       94.062     167.639    -111.231
  C       92.311     165.989    -110.724
  N       90.910     166.026    -110.305
  C       90.109     166.996    -110.902
  O       90.534     167.817    -111.718
  N       88.798     167.012    -110.506
  C       88.251     166.251    -109.513
  O       87.091     166.368    -109.133
  C       89.148     165.262    -108.900
  C       90.417     165.195    -109.318
  O       92.868     162.038    -106.510
  O       95.084     163.124    -105.843
  H       94.442     166.825    -111.611
  H       95.255     162.186    -105.638
  H       88.204     167.715    -110.917
  H       88.748     164.630    -108.120
  H       91.095     164.476    -108.874
  H       92.341     165.928    -111.820
  H       92.499     168.079    -109.990
  H       93.121     166.614    -108.179
  H       94.994     165.241    -110.194
  H       94.364     163.229    -108.743
  H       95.468     164.410    -107.987
  P       95.066     168.127    -107.255
  C       93.960     170.197    -106.201
  O       93.970     169.298    -107.309
  O       96.429     168.559    -106.822
  O       94.441     167.094    -106.204
  H       95.104     166.885    -105.517
  H       93.194     170.931    -106.344
  H       94.910     170.683    -106.127
  H       93.768     169.651    -105.301

 6  7  8  9  10  11  12  13  14  15  16  26  31  32  33  34  35 0
 6-311+G(2d,p)
 ****
 36  37 0
 6-311+G(2d,p)
 ****
 1  2  3  4  5  17  18  19  20  21  22  23  24  25 0
 3-21G
 ****
 27  28  29  30  38  39  40  41  42  43  44  45 0
 3-21G
 ****


