%nproc=1
%NoSave
%Mem=1900MB
#P OB98/GEN NMR

erre ene a

0 1
  C     1293.274    -564.156    -188.002
  O     1293.033    -564.787    -189.250
  P     1291.679    -564.525    -190.065
  C     1291.119    -564.336    -192.591
  O     1292.144    -564.330    -191.605
  C     1291.636    -563.666    -193.862
  O     1291.607    -562.238    -193.686
  C     1293.081    -564.023    -194.233
  O     1293.153    -565.306    -194.809
  C     1293.431    -562.852    -195.150
  O     1292.893    -563.079    -196.469
  C     1292.681    -561.654    -194.487
  N     1293.570    -560.844    -193.677
  C     1294.562    -560.127    -194.354
  O     1294.664    -560.205    -195.606
  N     1295.408    -559.316    -193.654
  C     1295.281    -559.210    -192.366
  N     1296.093    -558.339    -191.708
  C     1294.275    -559.988    -191.590
  C     1293.461    -560.755    -192.304
  O     1290.833    -563.399    -189.523
  O     1290.930    -565.935    -190.105
  H     1293.324    -563.887    -196.815
  H     1290.343    -566.086    -189.333
  H     1294.220    -559.896    -190.508
  H     1292.692    -561.339    -191.808
  H     1292.198    -561.044    -195.254
  H     1294.499    -562.680    -195.265
  H     1293.719    -563.975    -193.345
  H     1290.953    -563.916    -194.689
  H     1296.636    -557.700    -192.306
  H     1290.252    -563.792    -192.228
  H     1295.866    -558.012    -190.781
  H     1290.837    -565.379    -192.785
  P     1294.539    -565.722    -195.490
  C     1295.518    -568.074    -196.025
  O     1294.785    -567.267    -195.125
  O     1295.633    -564.922    -194.630
  O     1294.631    -565.391    -196.954
  H     1295.924    -564.122    -195.106
  H     1295.786    -568.986    -195.529
  H     1296.429    -567.564    -196.356
  H     1294.883    -568.314    -196.895
  H     1294.228    -564.462    -187.626
  H     1292.510    -564.436    -187.307
  H     1293.266    -563.094    -188.132

 3  4  5  6  7  8  9  10  11  12  13  23  27  28  29  30  32 0
 6-311+G(2d,p)
 ****
 34  35 0
 6-311+G(2d,p)
 ****
 1  2  14  15  16  17  18  19  20  21  22  24  25  26 0
 3-21G
 ****
 31  33  36  37  38  39  40  41  42  43  44  45  46 0
 3-21G
 ****


