%nproc=1
%NoSave
%Mem=1900MB
#P OB98/GEN NMR

erre ene a

0 1
  C     -132.750    -397.808     588.288
  O     -131.797    -398.477     589.082
  H     -132.265    -397.473     587.367
  H     -133.149    -396.938     588.807
  H     -133.570    -398.482     588.016
  P     -132.240    -399.028     590.523
  C     -131.860    -396.783     591.749
  O     -132.812    -397.771     591.340
  C     -132.424    -395.958     592.923
  O     -131.378    -395.044     593.357
  C     -133.657    -395.139     592.515
  O     -134.770    -395.341     593.385
  C     -133.100    -393.718     592.393
  O     -134.058    -392.702     592.608
  C     -131.933    -393.716     593.390
  N     -130.899    -392.726     593.078
  C     -131.125    -391.415     593.490
  O     -132.105    -391.022     594.107
  N     -130.133    -390.518     593.181
  C     -128.982    -390.791     592.488
  O     -128.132    -389.948     592.241
  C     -128.812    -392.192     592.052
  C     -129.760    -393.073     592.360
  O     -131.215    -399.835     591.245
  O     -133.560    -399.885     590.224
  H     -134.388    -392.807     593.538
  H     -133.344    -400.835     590.271
  H     -130.268    -389.570     593.487
  H     -127.919    -392.437     591.494
  H     -129.679    -394.120     592.065
  H     -132.283    -393.519     594.404
  H     -132.705    -393.586     591.379
  H     -134.036    -395.450     591.538
  H     -132.639    -396.633     593.758
  H     -131.662    -396.136     590.884
  H     -130.924    -397.270     592.051
  P     -136.162    -395.998     592.947
  C     -137.391    -393.788     592.191
  O     -136.834    -395.052     591.837
  O     -137.036    -396.463     594.055
  O     -135.732    -397.298     592.098
  H     -136.429    -397.971     592.242
  H     -137.786    -393.315     591.316
  H     -136.629    -393.169     592.618
  H     -138.175    -393.931     592.905

 6  7  8  9  10  11  12  13  14  15  16  26  31  32  33  34  35 0
 6-311+G(2d,p)
 ****
 36  37 0
 6-311+G(2d,p)
 ****
 1  2  3  4  5  17  18  19  20  21  22  23  24  25 0
 3-21G
 ****
 27  28  29  30  38  39  40  41  42  43  44  45 0
 3-21G
 ****


