%nproc=1
%NoSave
%Mem=1900MB
#P OB98/GEN NMR

erre ene a

0 1
  C     -569.510    -857.203     385.545
  O     -568.329    -857.915     385.868
  H     -569.306    -856.549     384.692
  H     -569.826    -856.591     386.395
  H     -570.308    -857.901     385.273
  P     -568.432    -858.944     387.094
  C     -567.889    -861.089     385.714
  O     -567.475    -860.175     386.716
  C     -566.669    -861.714     385.022
  O     -566.079    -860.717     384.134
  C     -565.565    -862.161     385.989
  O     -564.866    -863.260     385.378
  C     -564.663    -860.933     386.016
  O     -563.413    -861.238     386.587
  C     -564.699    -860.566     384.530
  N     -560.590    -857.603     383.838
  C     -560.719    -858.937     384.025
  N     -561.842    -859.649     384.189
  C     -562.935    -858.859     384.125
  C     -562.961    -857.489     383.929
  C     -561.717    -856.849     383.777
  N     -561.584    -855.494     383.596
  N     -564.263    -857.025     383.923
  C     -565.003    -858.095     384.112
  N     -564.238    -859.225     384.251
  O     -569.907    -859.547     386.944
  O     -568.200    -858.360     388.448
  H     -562.889    -860.422     386.739
  H     -570.525    -859.064     387.514
  H     -559.785    -859.496     384.059
  H     -566.084    -858.111     384.165
  H     -564.094    -861.257     383.932
  H     -565.103    -860.137     386.626
  H     -565.942    -862.464     386.968
  H     -567.008    -862.538     384.385
  H     -568.498    -860.551     384.978
  H     -568.490    -861.881     386.168
  H     -560.655    -855.109     383.516
  H     -562.413    -854.922     383.571
  P     -563.806    -864.090     386.257
  C     -564.921    -866.442     385.976
  O     -563.789    -865.612     385.743
  O     -564.563    -864.223     387.665
  O     -562.464    -863.450     386.439
  H     -563.903    -864.297     388.391
  H     -564.739    -867.415     385.570
  H     -565.780    -866.014     385.504
  H     -565.095    -866.521     387.029

 6  7  8  9  10  11  12  13  14  15  25  28  32  33  34  35 0
 6-311+G(2d,p)
 ****
 36  37  40 0
 6-311+G(2d,p)
 ****
 1  2  3  4  5  16  17  18  19  20  21  22  23  24 0
 3-21G
 ****
 26  27  29  30  31  38  39 41  42  43  44  45  46  47  48 0
 3-21G
 ****


