%nproc=1
%NoSave
%Mem=1900MB
#P OB98/GEN NMR

erre ene a

0 1
  C     -155.453      -2.464      37.565
  O     -156.340      -1.988      36.574
  H     -155.700      -3.505      37.787
  H     -155.556      -1.875      38.481
  H     -154.422      -2.415      37.204
  P     -156.186      -0.451      36.140
  C     -157.275       0.597      38.254
  O     -157.376       0.349      36.858
  C     -158.522       1.332      38.734
  O     -158.467       1.505      40.169
  C     -158.677       2.734      38.161
  O     -159.175       2.721      36.835
  C     -159.655       3.343      39.154
  O     -161.014       3.009      38.827
  C     -159.227       2.689      40.487
  N     -158.480       3.610      41.336
  C     -159.207       4.675      41.859
  O     -160.405       4.851      41.630
  N     -158.502       5.562      42.626
  C     -157.164       5.508      42.884
  O     -156.577       6.376      43.519
  C     -156.447       4.351      42.318
  C     -157.126       3.474      41.573
  O     -156.611      -0.465      34.598
  O     -154.827       0.131      36.347
  H     -155.817      -0.419      34.033
  H     -161.574       3.664      39.287
  H     -159.009       6.347      43.004
  H     -155.384       4.276      42.509
  H     -156.617       2.625      41.129
  H     -160.111       2.354      41.047
  H     -159.591       4.431      39.162
  H     -157.726       3.279      38.224
  H     -159.401       0.717      38.496
  H     -156.395       1.220      38.450
  H     -157.155      -0.356      38.778
  P     -158.241       3.288      35.662
  C     -158.654       5.883      35.599
  O     -158.969       4.599      35.090
  O     -158.472       2.188      34.524
  O     -156.821       3.487      36.067
  H     -159.381       1.840      34.511
  H     -159.241       6.621      35.093
  H     -157.615       6.084      35.442
  H     -158.868       5.914      36.647

 6  7  8  9  10  11  12  13  14  15  16  27  31  32  33  34  35 0
 6-311+G(2d,p)
 ****
 36  37 0
 6-311+G(2d,p)
 ****
 1  2  3  4  5  17  18  19  20  21  22  23  24  25 0
 3-21G
 ****
 26  28  29  30  38  39  40  41  42  43  44  45 0
 3-21G
 ****


