%nproc=1
%NoSave
%Mem=1900MB
#P OB98/GEN NMR

erre ene a

0 1
  C      482.845     546.357     179.608
  O      482.472     547.505     178.852
  P      481.017     548.170     178.874
  C      479.837     548.768     181.134
  O      480.876     549.035     180.211
  C      479.508     549.966     182.045
  O      480.653     550.265     182.890
  C      479.254     551.222     181.202
  O      477.975     551.450     180.641
  C      479.767     552.367     182.061
  O      478.737     552.974     182.843
  C      480.801     551.698     182.966
  N      485.385     553.212     184.677
  C      484.213     552.993     185.381
  N      484.250     553.253     186.708
  N      483.107     552.569     184.836
  C      483.182     552.430     183.491
  C      484.273     552.637     182.682
  C      485.513     553.049     183.308
  O      486.581     553.240     182.725
  N      483.968     552.414     181.365
  C      482.693     552.101     181.371
  N      482.168     552.089     182.644
  O      479.888     547.256     178.540
  O      481.097     549.282     177.706
  H      479.124     553.731     183.312
  H      480.207     549.347     177.317
  H      486.214     553.510     185.154
  H      482.093     551.866     180.499
  H      480.641     551.971     184.017
  H      480.182     553.165     181.425
  H      485.037     553.692     187.162
  H      479.933     551.173     180.345
  H      483.349     553.306     187.184
  H      478.689     549.731     182.722
  H      480.160     547.912     181.738
  H      478.939     548.456     180.607
  P      477.573     551.274     179.098
  C      477.828     549.460     177.312
  O      477.801     549.743     178.697
  O      478.748     552.026     178.308
  O      476.240     551.838     178.725
  H      478.480     552.207     177.388
  H      477.676     548.385     177.165
  H      478.794     549.743     176.888
  H      477.031     550.004     176.784
  H      483.870     546.119     179.413
  H      482.227     545.529     179.328
  H      482.718     546.560     180.651

 3  4  5  6  7  8  9  10  11  12  23  26  30  31 0
 6-311+G(2d,p)
 ****
 33  35  36  37  38 0
 6-311+G(2d,p)
 ****
 1  2  13  14  15  16  17  18  19  20  21  22  24  25 0
 3-21G
 ****
 27  28  29  32  34  39  40  41  42  43  44  45  46  47  48  49 0
 3-21G
 ****


