%nproc=1
%NoSave
%Mem=1900MB
#P OB98/GEN NMR

erre ene a

0 1
  C     -107.040     553.951     456.488
  O     -107.332     555.322     456.739
  P     -106.124     556.373     456.755
  C     -106.012     556.851     454.150
  O     -106.210     557.322     455.467
  C     -105.265     557.921     453.342
  O     -104.637     557.326     452.181
  C     -106.177     559.038     452.835
  O     -106.338     560.071     453.797
  C     -105.450     559.488     451.580
  O     -104.333     560.320     451.920
  C     -104.964     558.134     451.015
  N     -105.891     557.367     450.151
  C     -106.348     557.927     448.957
  O     -106.045     559.048     448.558
  N     -107.185     557.143     448.211
  C     -107.472     555.824     448.424
  O     -108.178     555.156     447.688
  C     -106.844     555.238     449.619
  C     -106.104     556.023     450.411
  O     -104.836     555.474     456.477
  O     -106.002     557.156     458.021
  H     -103.814     560.458     451.113
  H     -104.243     555.483     457.256
  H     -107.591     557.564     447.384
  H     -107.004     554.183     449.800
  H     -105.636     555.594     451.296
  H     -104.035     558.269     450.441
  H     -106.097     560.089     450.948
  H     -107.146     558.636     452.535
  H     -104.473     558.346     453.975
  H     -106.964     556.615     453.675
  H     -105.434     555.922     454.172
  P     -107.693     560.914     453.836
  C     -109.287     559.619     455.369
  O     -108.329     560.653     455.284
  O     -108.617     560.731     452.677
  O     -107.176     562.432     453.956
  H     -107.141     562.862     453.068
  H     -109.522     559.430     456.417
  H     -108.891     558.698     454.925
  H     -110.201     559.917     454.847
  H     -107.947     553.383     456.511
  H     -106.371     553.585     457.239
  H     -106.583     553.854     455.526

 3  4  5  6  7  8  9  10  11  12  13  23  28  29  30  31  32 0
 6-311+G(2d,p)
 ****
 33  34 0
 6-311+G(2d,p)
 ****
 1  2  14  15  16  17  18  19  20  21  22  24  25  26  27 0
 3-21G
 ****
 35  36  37  38  39  40  41  42  43  44  45 0
 3-21G
 ****


