%nproc=1
%NoSave
%Mem=1900MB
#P OB98/GEN NMR

erre ene a

0 1
  C       71.781    -131.598     251.977
  O       73.015    -130.909     251.933
  H       71.944    -132.579     252.434
  H       71.400    -131.744     250.963
  H       71.047    -131.053     252.576
  P       73.018    -129.351     251.561
  C       72.542    -128.515     253.955
  O       73.474    -128.563     252.883
  C       73.237    -128.117     255.259
  O       74.256    -129.120     255.566
  C       73.947    -126.748     255.202
  O       73.880    -126.176     256.516
  C       75.365    -127.168     254.860
  O       76.283    -126.125     255.062
  C       75.494    -128.404     255.755
  N       76.645    -129.238     255.434
  C       77.690    -129.269     256.354
  O       77.682    -128.655     257.420
  N       78.770    -130.034     256.000
  C       78.905    -130.745     254.844
  O       79.888    -131.432     254.588
  C       77.782    -130.649     253.899
  C       76.720    -129.913     254.231
  O       71.776    -128.835     250.916
  O       74.289    -129.196     250.598
  H       73.997    -129.211     249.667
  H       76.045    -125.348     254.513
  H       79.536    -130.067     256.656
  H       77.868    -131.186     252.963
  H       75.873    -129.817     253.559
  H       75.542    -128.115     256.810
  H       75.433    -127.445     253.804
  H       73.494    -126.063     254.481
  H       72.507    -128.148     256.077
  H       72.091    -129.506     254.062
  H       71.756    -127.789     253.715
  P       74.158    -124.625     256.817
  C       71.906    -123.467     256.329
  O       72.802    -123.931     257.328
  O       74.802    -123.900     255.680
  O       75.108    -124.604     258.106
  H       75.741    -123.864     258.028
  H       71.048    -123.029     256.795
  H       71.598    -124.289     255.716
  H       72.396    -122.734     255.723

 6  7  8  9  10  11  12  13  14  15  16  27  31  32  33  34  35 0
 6-311+G(2d,p)
 ****
 36  37 0
 6-311+G(2d,p)
 ****
 1  2  3  4  5  17  18  19  20  21  22  23  24  25 0
 3-21G
 ****
 26  28  29  30  38  39  40  41  42  43  44  45 0
 3-21G
 ****


