%nproc=1
%NoSave
%Mem=1900MB
#P OB98/GEN NMR

erre ene a

0 1
  C      -17.768    -400.165      58.942
  O      -18.328    -398.882      58.631
  P      -17.360    -397.612      58.724
  C      -16.132    -398.173      56.479
  O      -16.049    -398.001      57.887
  C      -15.617    -396.921      55.767
  O      -14.192    -396.768      55.970
  C      -15.805    -396.933      54.260
  O      -17.167    -396.693      53.913
  C      -14.833    -395.840      53.832
  O      -15.423    -394.544      54.022
  C      -13.674    -396.043      54.835
  N      -12.523    -396.716      54.244
  C      -11.876    -396.021      53.211
  O      -12.258    -394.933      52.797
  N      -10.798    -396.654      52.656
  C      -10.321    -397.891      53.004
  O       -9.331    -398.399      52.484
  C      -11.069    -398.585      54.065
  C      -12.113    -397.977      54.627
  O      -16.894    -397.688      60.250
  O      -18.028    -396.338      58.327
  H      -16.792    -398.599      60.568
  H      -14.712    -393.889      53.851
  H      -10.315    -396.169      51.917
  H      -10.733    -399.574      54.349
  H      -12.685    -398.480      55.400
  H      -13.335    -395.073      55.219
  H      -14.553    -395.919      52.784
  H      -15.483    -397.901      53.850
  H      -16.118    -396.053      56.211
  H      -17.172    -398.344      56.185
  H      -15.562    -399.061      56.193
  P      -17.775    -397.589      52.726
  C      -18.182    -399.913      53.888
  O      -17.371    -399.107      53.049
  O      -16.820    -397.195      51.506
  O      -19.233    -397.359      52.478
  H      -15.888    -397.158      51.748
  H      -17.942    -400.952      53.704
  H      -19.242    -399.740      53.685
  H      -17.969    -399.667      54.936
  H      -18.522    -400.917      58.839
  H      -17.403    -400.161      59.948
  H      -16.961    -400.374      58.271

 3  4  5  6  7  8  9  10  11  12  13  24  28  29  30  31  32 0
 6-311+G(2d,p)
 ****
 33  34 0
 6-311+G(2d,p)
 ****
 1  2  14  15  16  17  18  19  20  21  22  23  25  26  27 0
 3-21G
 ****
 35  36  37  38  39  40  41  42  43  44  45 0
 3-21G
 ****


