%nproc=1
%NoSave
%Mem=1900MB
#P OB98/GEN NMR

erre ene a

0 1
  C       23.366     351.816    -637.561
  O       22.261     351.281    -638.290
  P       22.454     351.168    -639.883
  C       21.992     348.609    -639.860
  O       21.637     349.881    -640.390
  C       21.034     347.530    -640.356
  O       19.667     347.787    -639.976
  C       21.018     347.380    -641.873
  O       22.138     346.623    -642.295
  C       19.689     346.670    -642.105
  O       19.824     345.244    -641.932
  C       18.795     347.266    -641.006
  N       15.283     348.571    -644.426
  C       16.110     347.458    -644.384
  N       15.951     346.555    -645.376
  N       16.994     347.254    -643.443
  C       17.034     348.239    -642.520
  C       16.255     349.368    -642.441
  C       15.282     349.591    -643.490
  O       14.519     350.543    -643.560
  N       16.545     350.105    -641.318
  C       17.588     349.486    -640.789
  N       17.883     348.309    -641.442
  O       23.991     350.739    -640.039
  O       22.165     352.439    -640.609
  H       20.156     345.060    -641.034
  H       24.507     351.475    -640.412
  H       14.627     348.682    -645.182
  H       18.137     349.824    -639.930
  H       18.166     346.490    -640.536
  H       19.324     346.820    -643.118
  H       15.289     346.645    -646.128
  H       21.006     348.370    -642.342
  H       16.542     345.731    -645.355
  H       21.336     346.582    -639.895
  H       21.979     348.642    -638.766
  H       23.023     348.383    -640.154
  P       23.602     347.215    -641.995
  C       24.655     344.859    -642.264
  O       24.665     346.216    -642.654
  O       23.771     346.980    -640.419
  O       23.767     348.651    -642.344
  H       24.149     347.778    -640.004
  H       25.012     344.250    -643.100
  H       23.648     344.528    -641.994
  H       25.329     344.713    -641.421
  H       23.126     351.844    -636.519
  H       23.574     352.807    -637.906
  H       24.226     351.198    -637.712

 3  4  5  6  7  8  9  10  11  12  23  26  30  31 0
 6-311+G(2d,p)
 ****
 33  35  36  37  38 0
 6-311+G(2d,p)
 ****
 1  2  13  14  15  16  17  18  19  20  21  22  24  25 0
 3-21G
 ****
 27  28  29  32  34  39  40  41  42  43  44  45  46  47  48  49 0
 3-21G
 ****


