%nproc=1
%NoSave
%Mem=1900MB
#P OB98/GEN NMR

erre ene a

0 1
  C     -168.294     -18.250      59.867
  O     -169.336     -17.645      60.606
  H     -168.723     -18.743      58.992
  H     -167.783     -18.999      60.477
  H     -167.581     -17.492      59.534
  P     -168.925     -16.911      61.971
  C     -168.376     -14.613      60.893
  O     -167.885     -15.758      61.578
  C     -168.489     -13.445      61.867
  O     -169.202     -13.862      63.055
  C     -167.151     -12.916      62.362
  O     -166.518     -12.081      61.410
  C     -167.584     -12.164      63.610
  O     -168.044     -10.840      63.294
  C     -168.739     -13.040      64.143
  N     -168.338     -13.835      65.299
  C     -168.472     -13.210      66.535
  O     -168.897     -12.062      66.669
  N     -168.061     -13.937      67.619
  C     -167.508     -15.183      67.583
  O     -167.093     -15.752      68.586
  C     -167.406     -15.800      66.250
  C     -167.810     -15.104      65.184
  O     -168.021     -18.005      62.712
  O     -170.070     -16.461      62.816
  H     -168.535     -18.438      63.418
  H     -168.504     -10.514      64.092
  H     -168.139     -13.498      68.523
  H     -166.976     -16.791      66.186
  H     -167.724     -15.529      64.189
  H     -169.586     -12.409      64.444
  H     -166.761     -12.052      64.316
  H     -166.502     -13.747      62.659
  H     -169.068     -12.645      61.384
  H     -169.366     -14.832      60.480
  H     -167.696     -14.371      60.070
  P     -164.993     -12.385      61.020
  C     -165.263     -11.995      58.436
  O     -165.003     -12.894      59.499
  O     -164.714     -13.708      61.872
  O     -164.067     -11.250      61.295
  H     -165.489     -14.293      61.932
  H     -165.226     -12.522      57.506
  H     -164.526     -11.220      58.436
  H     -166.234     -11.564      58.563

 6  7  8  9  10  11  12  13  14  15  16  27  31  32  33  34  35 0
 6-311+G(2d,p)
 ****
 36  37 0
 6-311+G(2d,p)
 ****
 1  2  3  4  5  17  18  19  20  21  22  23  24  25 0
 3-21G
 ****
 26  28  29  30  38  39  40  41  42  43  44  45 0
 3-21G
 ****


