%nproc=1
%NoSave
%Mem=1900MB
#P OB98/GEN NMR

erre ene a

0 1
  C     -146.691    1013.687    -733.454
  O     -145.933    1012.498    -733.371
  P     -145.250    1011.844    -734.662
  C     -142.950    1012.833    -734.061
  O     -144.020    1012.815    -735.012
  C     -141.672    1012.293    -734.726
  O     -141.366    1013.117    -735.871
  C     -140.411    1012.341    -733.851
  O     -140.265    1011.236    -732.968
  C     -139.324    1012.296    -734.921
  O     -139.167    1010.932    -735.391
  C     -139.932    1013.162    -736.031
  N     -135.891    1016.254    -736.565
  C     -136.034    1014.913    -736.735
  N     -137.138    1014.165    -736.557
  C     -138.180    1014.933    -736.209
  C     -138.191    1016.310    -736.004
  C     -136.960    1016.969    -736.202
  N     -136.827    1018.343    -736.052
  N     -139.442    1016.734    -735.642
  C     -140.189    1015.646    -735.635
  N     -139.470    1014.536    -735.967
  O     -146.190    1011.573    -735.783
  O     -144.534    1010.525    -734.114
  H     -138.697    1010.435    -734.686
  H     -144.318    1009.926    -734.855
  H     -135.133    1014.376    -737.051
  H     -141.235    1015.628    -735.368
  H     -139.702    1012.775    -737.039
  H     -138.350    1012.612    -734.564
  H     -140.331    1013.290    -733.310
  H     -141.856    1011.276    -735.075
  H     -143.216    1012.176    -733.230
  H     -135.947    1018.740    -736.353
  H     -137.660    1018.892    -735.959
  H     -142.803    1013.841    -733.688
  P     -139.008    1011.243    -731.964
  C     -140.410    1011.561    -729.777
  O     -139.497    1012.106    -730.709
  O     -137.717    1011.681    -732.580
  O     -138.984    1009.746    -731.410
  H     -139.739    1009.497    -730.847
  H     -140.487    1012.226    -728.917
  H     -140.082    1010.577    -729.432
  H     -141.408    1011.468    -730.227
  H     -147.054    1013.947    -732.482
  H     -147.519    1013.537    -734.115
  H     -146.075    1014.478    -733.828

 3  4  5  6  7  8  9  10  11  12  22  25  29  30  31  32 0
 6-311+G(2d,p)
 ****
 33  36  37 0
 6-311+G(2d,p)
 ****
 1  2  13  14  15  16  17  18  19  20  21  23  24  26 0
 3-21G
 ****
 27  28  34  35  38  39  40  41  42  43  44  45  46  47  48 0
 3-21G
 ****


