%nproc=1
%NoSave
%Mem=1900MB
#P OB98/GEN NMR

erre ene a

0 1
  C      -14.770     302.075    -206.495
  O      -15.444     301.702    -207.681
  H      -14.205     302.990    -206.688
  H      -14.075     301.285    -206.195
  H      -15.489     302.264    -205.694
  P      -16.349     300.380    -207.600
  C      -14.531     299.045    -208.906
  O      -15.888     299.452    -208.824
  C      -14.154     298.731    -210.359
  O      -14.935     297.582    -210.806
  C      -14.450     299.875    -211.339
  O      -13.510     299.783    -212.424
  C      -15.838     299.507    -211.836
  O      -16.177     300.245    -212.987
  C      -15.658     297.999    -211.983
  N      -18.917     295.720    -215.199
  C      -17.713     296.301    -215.400
  N      -16.898     296.875    -214.492
  C      -17.427     296.794    -213.259
  C      -18.639     296.227    -212.899
  C      -19.406     295.671    -213.939
  N      -20.636     295.088    -213.738
  N      -18.844     296.339    -211.535
  C      -17.775     296.963    -211.085
  N      -16.896     297.265    -212.089
  O      -17.798     300.898    -208.039
  O      -16.376     299.701    -206.272
  H      -15.534     300.076    -213.710
  H      -18.327     301.112    -207.248
  H      -17.360     296.305    -216.428
  H      -17.589     297.228    -210.050
  H      -15.047     297.746    -212.857
  H      -16.595     299.738    -211.080
  H      -14.382     300.868    -210.883
  H      -13.099     298.430    -210.399
  H      -14.398     298.151    -208.286
  H      -13.887     299.843    -208.527
  H      -21.129     294.729    -214.540
  H      -21.021     295.061    -212.806
  P      -12.082     300.508    -212.286
  C      -12.921     302.844    -213.111
  O      -12.036     301.749    -213.300
  O      -11.105     299.458    -213.005
  O      -11.627     300.784    -210.892
  H      -10.209     299.535    -212.626
  H      -12.752     303.575    -213.874
  H      -12.745     303.283    -212.151
  H      -13.932     302.499    -213.165

 6  7  8  9  10  11  12  13  14  15  25  28  32  33  34  35 0
 6-311+G(2d,p)
 ****
 36  37  40 0
 6-311+G(2d,p)
 ****
 1  2  3  4  5  16  17  18  19  20  21  22  23  24 0
 3-21G
 ****
 26  27  29  30  31  38  39 41  42  43  44  45  46  47  48 0
 3-21G
 ****


