%nproc=1
%NoSave
%Mem=1900MB
#P OB98/GEN NMR

erre ene a

0 1
  C     -915.719    -890.350    -155.244
  O     -915.574    -891.400    -154.277
  P     -916.535    -892.690    -154.393
  C     -918.037    -892.430    -152.264
  O     -917.014    -893.160    -152.930
  C     -918.139    -892.850    -150.777
  O     -918.972    -894.040    -150.635
  C     -916.787    -893.180    -150.106
  O     -916.891    -892.810    -148.740
  C     -916.723    -894.700    -150.226
  O     -915.800    -895.290    -149.310
  C     -918.207    -895.060    -149.973
  N     -918.566    -896.390    -150.440
  C     -919.625    -896.480    -151.363
  O     -920.331    -895.520    -151.728
  N     -919.903    -897.740    -151.848
  C     -919.250    -898.900    -151.469
  O     -919.557    -900.000    -151.889
  C     -918.155    -898.730    -150.470
  C     -917.886    -897.490    -150.029
  O     -915.491    -893.850    -154.787
  O     -917.630    -892.600    -155.402
  H     -915.663    -896.200    -149.593
  H     -915.874    -894.380    -155.534
  H     -920.664    -897.830    -152.490
  H     -917.623    -899.620    -150.180
  H     -917.075    -897.360    -149.346
  H     -918.416    -894.950    -148.892
  H     -916.407    -894.970    -151.244
  H     -915.942    -892.680    -150.590
  H     -918.639    -892.050    -150.232
  H     -918.995    -892.630    -152.741
  H     -917.817    -891.370    -152.321
  P     -916.515    -891.280    -148.329
  C     -914.768    -891.980    -146.501
  O     -915.973    -891.310    -146.827
  O     -917.991    -890.660    -148.187
  O     -915.686    -890.560    -149.349
  H     -918.596    -891.240    -147.666
  H     -914.013    -891.810    -147.279
  H     -914.964    -893.050    -146.428
  H     -914.398    -891.600    -145.574
  H     -915.016    -889.571    -155.033
  H     -916.713    -889.956    -155.196
  H     -915.537    -890.740    -156.224

 3  4  5  6  7  8  9  10  11  12  13  23  28  29  30  31  32 0
 6-311+G(2d,p)
 ****
 33  34 0
 6-311+G(2d,p)
 ****
 1  2  14  15  16  17  18  19  20  21  22  24  25  26 0
 3-21G
 ****
 27  35  36  37  38  39  40  41  42  43  44  45 0
 3-21G
 ****


