%nproc=1
%NoSave
%Mem=1900MB
#P OB98/GEN NMR

erre ene a

0 1
  C       -3.117    -108.661     -72.681
  O       -4.422    -109.205     -72.669
  H       -2.572    -109.071     -73.535
  H       -2.588    -108.928     -71.764
  H       -3.163    -107.573     -72.781
  P       -5.377    -108.774     -71.454
  C       -5.617    -106.377     -72.424
  O       -5.249    -107.181     -71.312
  C       -6.718    -105.404     -72.010
  O       -6.292    -104.642     -70.857
  C       -7.067    -104.370     -73.074
  O       -7.896    -104.904     -74.089
  C       -7.767    -103.317     -72.232
  O       -9.151    -103.640     -72.027
  C       -6.982    -103.376     -70.903
  N       -6.070    -102.249     -70.754
  C       -6.625    -101.084     -70.229
  O       -7.807    -100.988     -69.907
  N       -5.777    -100.013     -70.121
  C       -4.473     -99.982     -70.514
  O       -3.789     -98.966     -70.459
  C       -3.933    -101.247     -71.048
  C       -4.745    -102.303     -71.151
  O       -4.604    -109.335     -70.171
  O       -6.777    -109.287     -71.537
  H       -5.029    -110.154     -69.854
  H       -9.163    -104.461     -71.496
  H       -6.165     -99.160     -69.758
  H       -2.896    -101.258     -71.366
  H       -4.376    -103.236     -71.562
  H       -7.674    -103.364     -70.050
  H       -7.738    -102.337     -72.710
  H       -6.150    -103.935     -73.495
  H       -7.609    -105.985     -71.731
  H       -5.991    -107.015     -73.232
  H       -4.733    -105.837     -72.781
  P       -7.835    -104.244     -75.551
  C       -6.265    -106.232     -76.262
  O       -6.528    -104.843     -76.267
  O       -7.434    -102.739     -75.196
  O       -9.095    -104.397     -76.332
  H       -6.827    -102.675     -74.438
  H       -5.353    -106.424     -76.788
  H       -7.069    -106.749     -76.742
  H       -6.173    -106.574     -75.252

 6  7  8  9  10  11  12  13  14  15  16  27  31  32  33  34  35 0
 6-311+G(2d,p)
 ****
 36  37 0
 6-311+G(2d,p)
 ****
 1  2  3  4  5  17  18  19  20  21  22  23  24  25 0
 3-21G
 ****
 26  28  29  30  38  39  40  41  42  43  44  45 0
 3-21G
 ****


