%nproc=1
%NoSave
%Mem=1900MB
#P OB98/GEN NMR

erre ene a

0 1
  C      -18.306    -414.000    -501.762
  O      -18.992    -412.744    -501.881
  P      -20.154    -412.682    -502.999
  C      -19.650    -410.726    -504.643
  O      -19.505    -412.116    -504.356
  C      -19.047    -410.396    -506.012
  O      -17.676    -410.801    -506.131
  C      -19.782    -411.070    -507.171
  O      -20.963    -410.350    -507.472
  C      -18.740    -410.999    -508.280
  O      -18.772    -409.715    -508.946
  C      -17.416    -411.160    -507.509
  N      -15.479    -414.764    -510.522
  C      -16.115    -413.582    -510.848
  N      -16.211    -413.292    -512.161
  N      -16.590    -412.738    -509.969
  C      -16.421    -413.144    -508.687
  C      -15.785    -414.290    -508.235
  C      -15.268    -415.210    -509.224
  O      -14.682    -416.260    -508.985
  N      -15.751    -414.331    -506.856
  C      -16.458    -413.277    -506.493
  N      -16.837    -412.494    -507.557
  O      -21.087    -411.486    -502.490
  O      -20.915    -413.960    -503.143
  H      -18.558    -409.017    -508.299
  H      -21.943    -411.841    -502.177
  H      -15.148    -415.379    -511.241
  H      -16.720    -413.032    -505.469
  H      -16.642    -410.482    -507.891
  H      -18.911    -411.750    -509.045
  H      -15.864    -413.891    -512.905
  H      -19.993    -412.115    -506.924
  H      -16.662    -412.417    -512.430
  H      -19.092    -409.292    -506.139
  H      -19.153    -410.134    -503.867
  H      -20.709    -410.467    -504.597
  P      -22.352    -410.896    -506.870
  C      -22.834    -412.717    -508.654
  O      -22.490    -412.433    -507.313
  O      -23.457    -410.134    -507.740
  O      -22.531    -410.635    -505.414
  H      -24.160    -409.805    -507.162
  H      -22.397    -413.692    -508.923
  H      -22.465    -411.961    -509.341
  H      -23.927    -412.783    -508.749
  H      -17.562    -413.929    -500.997
  H      -17.838    -414.240    -502.694
  H      -19.007    -414.767    -501.507

 3  4  5  6  7  8  9  10  11  12  23  26  30  31 0
 6-311+G(2d,p)
 ****
 33  35  36  37  38 0
 6-311+G(2d,p)
 ****
 1  2  13  14  15  16  17  18  19  20  21  22  24  25 0
 3-21G
 ****
 27  28  29  32  34  39  40  41  42  43  44  45  46  47  48  49 0
 3-21G
 ****


