%nproc=1
%NoSave
%Mem=1900MB
#P OB98/GEN NMR

erre ene a

0 1
  C       96.767      96.105     -33.332
  O       95.431      96.007     -33.780
  H       96.764      96.297     -32.256
  H       97.275      96.931     -33.836
  H       97.298      95.168     -33.523
  P       95.208      95.783     -35.352
  C       95.989      97.005     -37.507
  O       96.147      96.843     -36.105
  C       96.044      98.488     -37.861
  O       94.854      99.152     -37.375
  C       97.211      99.235     -37.231
  O       98.428      99.010     -37.921
  C       96.727     100.671     -37.344
  O       97.011     101.223     -38.639
  C       95.205     100.528     -37.124
  N       94.798     100.962     -35.792
  C       94.491     102.314     -35.664
  O       94.553     103.110     -36.601
  N       94.145     102.733     -34.409
  C       94.116     101.959     -33.287
  O       93.868     102.412     -32.177
  C       94.436     100.534     -33.485
  C       94.767     100.110     -34.706
  O       93.729      96.347     -35.592
  O       95.356      94.373     -35.818
  H       93.100      95.605     -35.675
  H       96.625     102.121     -38.643
  H       93.931     103.711     -34.295
  H       94.415      99.889     -32.614
  H       95.027      99.069     -34.871
  H       94.654     101.130     -37.858
  H       97.213     101.317     -36.611
  H       97.301      98.974     -36.170
  H       96.068      98.583     -38.955
  H       95.022      96.599     -37.816
  H       96.784      96.453     -38.020
  P       99.802      99.420     -37.203
  C      101.193     101.647     -37.078
  O       99.995     100.993     -37.455
  O      100.873      98.734     -38.171
  O       99.882      99.001     -35.774
  H      100.608      98.754     -39.106
  H      101.126     102.685     -37.328
  H      102.018     101.207     -37.598
  H      101.340     101.543     -36.023

 6  7  8  9  10  11  12  13  14  15  16  27  31  32  33  34  35 0
 6-311+G(2d,p)
 ****
 36  37 0
 6-311+G(2d,p)
 ****
 1  2  3  4  5  17  18  19  20  21  22  23  24  25 0
 3-21G
 ****
 26  28  29  30  38  39  40  41  42  43  44  45 0
 3-21G
 ****


