%nproc=1
%NoSave
%Mem=1900MB
#P OB98/GEN NMR

erre ene a

0 1
  C     -891.760    -442.556      81.310
  O     -892.170    -442.976      80.012
  P     -892.560    -441.859      78.927
  C     -892.070    -443.651      77.138
  O     -892.930    -442.597      77.572
  C     -892.590    -444.318      75.871
  O     -893.980    -444.690      75.990
  C     -892.510    -443.437      74.638
  O     -891.170    -443.293      74.177
  C     -893.460    -444.139      73.684
  O     -892.820    -445.220      73.026
  C     -894.560    -444.666      74.642
  N     -895.790    -443.897      74.616
  C     -896.720    -444.268      73.658
  O     -896.460    -445.189      72.855
  N     -897.910    -443.592      73.596
  C     -898.150    -442.613      74.432
  N     -899.360    -441.980      74.320
  C     -897.180    -442.198      75.444
  C     -896.030    -442.861      75.493
  O     -891.600    -440.714      78.796
  O     -894.000    -441.355      79.458
  H     -893.530    -445.745      72.600
  H     -894.120    -440.428      79.202
  H     -897.450    -441.383      76.132
  H     -895.270    -442.604      76.223
  H     -894.810    -445.701      74.406
  H     -893.850    -443.462      72.913
  H     -892.920    -442.417      74.899
  H     -892.010    -445.228      75.703
  H     -900.000    -442.307      73.594
  H     -892.000    -444.406      77.938
  H     -899.660    -441.271      74.952
  H     -891.070    -443.245      76.987
  P     -890.550    -441.817      74.039
  C     -888.190    -442.913      74.118
  O     -889.060    -441.977      73.487
  O     -890.330    -441.387      75.567
  O     -891.430    -440.838      73.321
  H     -890.490    -440.427      75.665
  H     -887.350    -443.108      73.446
  H     -888.710    -443.857      74.319
  H     -887.810    -442.481      75.053
  H     -891.537    -443.414      81.909
  H     -892.548    -441.996      81.769
  H     -890.887    -441.942      81.227

 3  4  5  6  7  8  9  10  11  12  13  23  27  28  29  30  32 0
 6-311+G(2d,p)
 ****
 34  35 0
 6-311+G(2d,p)
 ****
 1  2  14  15  16  17  18  19  20  21  22  24  25  26 0
 3-21G
 ****
 31  33  36  37  38  39  40  41  42  43  44  45  46 0
 3-21G
 ****


