%nproc=1
%NoSave
%Mem=1900MB
#P OB98/GEN NMR

erre ene a

0 1
  C     -126.644     145.133      91.860
  O     -126.134     145.458      93.137
  P     -125.762     146.965      93.521
  C     -123.238     146.578      93.720
  O     -124.428     146.938      94.408
  C     -122.237     145.900      94.657
  O     -121.899     146.805      95.739
  C     -122.748     144.594      95.280
  O     -121.639     143.689      95.340
  C     -123.163     145.018      96.676
  O     -123.196     143.930      97.586
  C     -122.109     146.090      96.973
  N     -122.512     146.986      98.045
  C     -121.747     146.959      99.213
  O     -120.863     146.112      99.355
  N     -122.018     147.882     100.193
  C     -123.073     148.631     100.094
  N     -123.263     149.578     101.053
  C     -124.043     148.507      98.987
  C     -123.684     147.709      97.987
  O     -126.880     147.763      94.108
  O     -125.264     147.612      92.140
  H     -125.767     148.432      91.972
  H     -123.915     143.318      97.322
  H     -124.969     149.062      99.012
  H     -124.313     147.571      97.115
  H     -121.152     145.624      97.243
  H     -124.164     145.466      96.643
  H     -123.557     144.136      94.703
  H     -121.317     145.712      94.092
  H     -122.557     149.659     101.774
  H     -122.787     147.489      93.318
  H     -123.856     150.391     100.897
  H     -123.479     145.924      92.875
  P     -121.586     142.477      94.287
  C     -121.787     140.562      96.028
  O     -120.997     141.193      95.044
  O     -120.352     142.911      93.355
  O     -122.806     142.269      93.446
  H     -120.457     142.501      92.476
  H     -121.206     139.758      96.480
  H     -122.688     140.134      95.577
  H     -122.071     141.274      96.811
  H     -126.827     144.080      91.806
  H     -125.932     145.410      91.111
  H     -127.559     145.663      91.696

 3  4  5  6  7  8  9  10  11  12  13  24  27  28  29  30  32 0
 6-311+G(2d,p)
 ****
 34  35 0
 6-311+G(2d,p)
 ****
 1  2  14  15  16  17  18  19  20  21  22  23  25  26 0
 3-21G
 ****
 31  33  36  37  38  39  40  41  42  43  44  45  46 0
 3-21G
 ****


