%nproc=1
%NoSave
%Mem=1900MB
#P OB98/GEN NMR

erre ene a

0 1
  C     -106.012    -506.996    -159.699
  O     -104.883    -507.842    -159.939
  P     -104.042    -507.809    -161.300
  C     -105.597    -509.444    -162.545
  O     -105.002    -508.149    -162.539
  C     -106.872    -509.474    -163.391
  O     -107.896    -508.641    -162.804
  C     -106.711    -508.956    -164.818
  O     -106.060    -509.916    -165.642
  C     -108.154    -508.671    -165.204
  O     -108.824    -509.872    -165.624
  C     -108.742    -508.155    -163.867
  N     -108.872    -506.705    -163.831
  C     -109.902    -506.149    -164.600
  O     -110.609    -506.870    -165.297
  N     -110.081    -504.786    -164.567
  C     -109.262    -504.041    -163.897
  N     -109.495    -502.698    -163.895
  C     -108.100    -504.577    -163.141
  C     -107.975    -505.903    -163.161
  O     -102.793    -508.626    -161.268
  O     -103.685    -506.258    -161.525
  H     -108.192    -510.349    -166.203
  H     -102.822    -506.186    -161.996
  H     -107.425    -503.921    -162.620
  H     -107.151    -506.387    -162.632
  H     -109.731    -508.603    -163.686
  H     -108.246    -507.948    -166.024
  H     -106.140    -508.019    -164.809
  H     -107.248    -510.506    -163.397
  H     -110.295    -502.361    -164.409
  H     -105.848    -509.713    -161.512
  H     -108.913    -502.028    -163.397
  H     -104.865    -510.164    -162.936
  P     -104.495    -509.758    -165.959
  C     -104.800    -507.914    -167.725
  O     -104.253    -508.249    -166.458
  O     -103.908    -510.828    -166.825
  O     -103.807    -509.751    -164.512
  H     -102.921    -510.152    -164.579
  H     -104.937    -506.829    -167.760
  H     -105.779    -508.398    -167.869
  H     -104.118    -508.237    -168.506
  H     -106.408    -507.198    -158.726
  H     -106.763    -507.186    -160.437
  H     -105.708    -505.972    -159.755

 3  4  5  6  7  8  9  10  11  12  13  23  27  28  29  30  32 0
 6-311+G(2d,p)
 ****
 34  35 0
 6-311+G(2d,p)
 ****
 1  2  14  15  16  17  18  19  20  21  22  24  25  26 0
 3-21G
 ****
 31  33  36  37  38  39  40  41  42  43  44  45  46 0
 3-21G
 ****


