%nproc=1
%NoSave
%Mem=1900MB
#P OB98/GEN NMR

erre ene a

0 1
  C     -245.502      19.826     404.945
  O     -246.726      19.114     404.753
  P     -247.712      19.664     403.614
  C     -249.713      20.411     405.091
  O     -248.631      20.807     404.257
  C     -250.396      21.643     405.685
  O     -250.232      22.804     404.841
  C     -251.900      21.480     405.854
  O     -252.204      20.647     406.959
  C     -252.333      22.931     406.013
  O     -252.083      23.384     407.356
  C     -251.386      23.656     405.041
  N     -254.548      26.801     402.530
  C     -254.136      26.771     403.819
  N     -253.294      25.899     404.408
  C     -252.852      24.990     403.524
  C     -253.180      24.894     402.183
  C     -254.073      25.856     401.684
  N     -254.506      25.878     400.374
  N     -252.528      23.828     401.595
  C     -251.844      23.276     402.572
  N     -251.996      23.946     403.756
  O     -248.723      18.446     403.383
  O     -247.010      20.046     402.354
  H     -252.754      22.967     407.933
  H     -248.544      18.022     402.517
  H     -254.542      27.552     404.457
  H     -251.223      22.389     402.477
  H     -251.023      24.608     405.447
  H     -253.396      23.091     405.806
  H     -252.339      21.056     404.937
  H     -249.933      21.852     406.660
  H     -249.353      19.764     405.895
  H     -255.205      26.551     400.116
  H     -254.224      25.127     399.756
  H     -250.414      19.819     404.496
  P     -252.544      19.106     406.666
  C     -255.060      19.609     406.571
  O     -253.925      19.173     405.848
  O     -253.015      18.600     408.107
  O     -251.446      18.329     406.027
  H     -253.628      19.228     408.526
  H     -255.916      19.644     405.892
  H     -254.891      20.611     406.973
  H     -255.278      18.914     407.385
  H     -244.938      19.362     405.727
  H     -245.717      20.839     405.213
  H     -244.934      19.810     404.038

 3  4  5  6  7  8  9  10  11  12  22  25  29  30  31  32 0
 6-311+G(2d,p)
 ****
 33  36  37 0
 6-311+G(2d,p)
 ****
 1  2  13  14  15  16  17  18  19  20  21  23  24  26 0
 3-21G
 ****
 27  28  34  35  38  39  40  41  42  43  44  45  46  47  48 0
 3-21G
 ****


