%nproc=1
%NoSave
%Mem=1900MB
#P OB98/GEN NMR

erre ene a

0 1
  C     -584.312     354.149    -766.725
  O     -584.211     355.502    -767.133
  H     -583.395     353.633    -767.011
  H     -585.154     353.666    -767.229
  H     -584.438     354.081    -765.641
  P     -585.450     356.478    -766.830
  C     -586.606     357.546    -768.889
  O     -586.418     356.359    -768.110
  C     -585.495     357.669    -769.927
  O     -585.382     356.449    -770.688
  C     -585.719     358.797    -770.947
  O     -585.328     360.042    -770.391
  C     -584.817     358.326    -772.075
  O     -583.442     358.608    -771.746
  C     -585.068     356.798    -772.057
  N     -586.369     355.171    -776.689
  C     -585.144     355.596    -776.212
  N     -584.131     355.619    -777.095
  N     -584.937     355.972    -774.971
  C     -586.049     355.961    -774.214
  C     -587.334     355.583    -774.579
  C     -587.531     355.117    -775.941
  O     -588.601     354.720    -776.398
  N     -588.232     355.771    -773.560
  C     -587.481     356.213    -772.555
  N     -586.163     356.371    -772.916
  O     -585.111     357.888    -766.450
  O     -586.270     355.720    -765.684
  H     -583.358     359.574    -771.682
  H     -585.995     356.022    -764.798
  H     -586.472     354.910    -777.664
  H     -587.869     356.455    -771.561
  H     -584.172     356.231    -772.352
  H     -585.031     358.819    -773.016
  H     -584.286     355.615    -778.089
  H     -586.758     358.810    -771.305
  H     -583.226     355.961    -776.776
  H     -584.536     357.804    -769.398
  H     -586.587     358.398    -768.197
  H     -587.584     357.521    -769.383
  P     -585.757     361.431    -771.097
  C     -583.669     362.633    -772.068
  O     -584.671     361.631    -772.269
  O     -585.891     362.591    -770.162
  O     -587.089     361.074    -771.905
  H     -587.909     361.199    -771.369
  H     -583.017     362.661    -772.916
  H     -583.103     362.400    -771.190
  H     -584.138     363.587    -771.947

 6  7  8  9  10  11  12  13  14  15  26  29  33  34 0
 6-311+G(2d,p)
 ****
 36  38  39  40  41 0
 6-311+G(2d,p)
 ****
 1  2  3  4  5  16  17  18  19  20  21  22  23  24  25 0
 3-21G
 ****
 27  28  30  31  32  35  37  42  43  44  45  46  47 0
 3-21G
 ****
 48  49 0
 3-21G
 ****


