%nproc=1
%NoSave
%Mem=1900MB
#P OB98/GEN NMR

erre ene a

0 1
  C      -48.783     246.021     261.274
  O      -47.540     245.519     260.780
  P      -46.919     244.102     261.161
  C      -45.219     245.022     262.937
  O      -45.432     244.338     261.715
  C      -43.788     245.590     263.075
  O      -43.621     246.700     262.154
  C      -43.566     246.155     264.477
  O      -43.198     245.288     265.542
  C      -42.616     247.324     264.276
  O      -41.245     246.966     264.460
  C      -42.866     247.737     262.821
  N      -42.719     252.589     261.198
  C      -41.719     251.629     261.175
  N      -40.520     252.012     260.711
  N      -41.894     250.397     261.593
  C      -43.120     250.167     262.114
  C      -44.178     251.042     262.219
  C      -44.001     252.385     261.694
  O      -44.851     253.267     261.681
  N      -45.259     250.460     262.819
  C      -44.848     249.236     263.117
  N      -43.550     249.011     262.704
  O      -47.103     243.018     260.156
  O      -47.742     243.680     262.484
  H      -40.722     247.780     264.512
  H      -47.824     242.703     262.468
  H      -42.543     253.514     260.841
  H      -45.442     248.490     263.621
  H      -41.925     247.835     262.268
  H      -42.826     248.122     265.000
  H      -40.293     252.968     260.491
  H      -44.517     246.597     264.793
  H      -39.736     251.383     260.891
  H      -43.047     244.835     262.784
  H      -45.419     244.309     263.738
  H      -45.944     245.836     263.044
  P      -43.962     245.139     266.939
  C      -42.175     246.135     268.484
  O      -42.866     244.958     268.088
  O      -44.633     243.685     266.862
  O      -45.000     246.184     267.210
  H      -45.332     243.591     267.534
  H      -41.260     245.838     269.023
  H      -42.805     246.728     269.144
  H      -41.894     246.732     267.614
  H      -48.964     246.992     260.863
  H      -48.742     246.088     262.341
  H      -49.574     245.359     260.988

 3  4  5  6  7  8  9  10  11  12  23  26  30  31 0
 6-311+G(2d,p)
 ****
 33  35  36  37  38 0
 6-311+G(2d,p)
 ****
 1  2  13  14  15  16  17  18  19  20  21  22  24  25 0
 3-21G
 ****
 27  28  29  32  34  39  40  41  42  43  44  45  46  47  48  49 0
 3-21G
 ****


