%nproc=1
%NoSave
%Mem=1900MB
#P OB98/GEN NMR

erre ene a

0 1
  C      -85.780      74.479     -29.455
  O      -86.581      73.911     -30.482
  P      -87.058      72.388     -30.297
  C      -88.922      72.990     -28.593
  O      -87.693      72.311     -28.826
  C      -90.001      72.007     -28.149
  O      -90.470      71.241     -29.277
  C      -89.541      70.984     -27.122
  O      -89.550      71.506     -25.804
  C      -90.613      69.918     -27.276
  O      -91.805      70.318     -26.576
  C      -90.860      69.930     -28.789
  N      -91.220      65.764     -31.730
  C      -92.158      66.518     -31.119
  N      -91.981      67.606     -30.342
  C      -90.674      67.875     -30.190
  C      -89.605      67.173     -30.721
  C      -89.915      66.073     -31.536
  N      -88.959      65.324     -32.182
  N      -88.412      67.748     -30.342
  C      -88.752      68.783     -29.606
  N      -90.109      68.908     -29.492
  O      -85.676      71.595     -30.144
  O      -87.896      71.850     -31.405
  H      -91.520      70.666     -25.709
  H      -85.801      70.657     -30.387
  H      -93.188      66.211     -31.283
  H      -88.056      69.471     -29.144
  H      -91.917      69.792     -29.040
  H      -90.312      68.949     -26.867
  H      -88.564      70.563     -27.389
  H      -90.848      72.588     -27.761
  H      -89.242      73.478     -29.518
  H      -89.266      64.675     -32.889
  H      -88.009      65.678     -32.198
  H      -88.767      73.757     -27.828
  P      -88.507      70.864     -24.764
  C      -86.805      72.614     -25.651
  O      -87.059      71.263     -25.316
  O      -88.619      69.296     -25.062
  O      -88.789      71.193     -23.336
  H      -88.365      68.781     -24.273
  H      -85.724      72.765     -25.703
  H      -87.215      73.292     -24.898
  H      -87.240      72.841     -26.627
  H      -85.538      75.490     -29.709
  H      -84.879      73.912     -29.351
  H      -86.320      74.463     -28.531

 3  4  5  6  7  8  9  10  11  12  22  25  29  30  31  32 0
 6-311+G(2d,p)
 ****
 33  36  37 0
 6-311+G(2d,p)
 ****
 1  2  13  14  15  16  17  18  19  20  21  23  24  26 0
 3-21G
 ****
 27  28  34  35  38  39  40  41  42  43  44  45  46  47  48 0
 3-21G
 ****


