%nproc=1
%NoSave
%Mem=1900MB
#P OB98/GEN NMR

erre ene a

0 1
  C      -74.615    -514.687    -894.270
  O      -74.327    -515.248    -895.530
  H      -75.114    -515.417    -893.630
  H      -73.676    -514.385    -893.790
  H      -75.246    -513.799    -894.380
  P      -75.577    -515.752    -896.400
  C      -77.575    -517.356    -895.970
  O      -76.437    -516.704    -895.440
  C      -77.658    -518.777    -895.420
  O      -77.899    -518.752    -893.980
  C      -78.795    -519.612    -896.010
  O      -78.461    -520.158    -897.270
  C      -78.924    -520.700    -894.950
  O      -77.856    -521.656    -895.110
  C      -78.717    -519.897    -893.660
  N      -82.873    -521.292    -890.990
  C      -81.809    -521.998    -891.450
  N      -80.749    -521.556    -892.150
  C      -80.846    -520.236    -892.380
  C      -81.880    -519.380    -891.980
  C      -82.916    -519.965    -891.250
  N      -84.000    -519.249    -890.800
  N      -81.637    -518.101    -892.430
  C      -80.477    -518.165    -893.060
  N      -79.965    -519.432    -893.070
  O      -74.921    -516.779    -897.440
  O      -76.362    -514.682    -897.080
  H      -77.875    -522.237    -894.330
  H      -75.506    -516.901    -898.210
  H      -81.812    -523.062    -891.210
  H      -79.986    -517.323    -893.530
  H      -78.195    -520.475    -892.890
  H      -79.862    -521.248    -895.010
  H      -79.737    -519.034    -896.050
  H      -76.681    -519.278    -895.590
  H      -77.490    -517.405    -897.060
  H      -84.784    -519.790    -890.440
  H      -84.119    -518.294    -891.110
  H      -78.477    -516.794    -895.710
  P      -79.582    -521.027    -898.010
  C      -80.934    -523.169    -897.390
  O      -79.844    -522.298    -897.060
  O      -78.796    -521.659    -899.260
  O      -80.805    -520.271    -898.440
  H      -79.404    -521.854    -900.000
  H      -80.985    -523.963    -896.675
  H      -80.781    -523.578    -898.367
  H      -81.850    -522.616    -897.375

 6  7  8  9  10  11  12  13  14  15  25  28  32  33  34  35 0
 6-311+G(2d,p)
 ****
 36  39  40 0
 6-311+G(2d,p)
 ****
 1  2  3  4  5  16  17  18  19  20  21  22  23  24 0
 3-21G
 ****
 26  27  29  30  31  37  38  41  42  43  44  45  46  47 0
 3-21G
 ****
 48 0
 3-21G
 ****


