%nproc=1
%NoSave
%Mem=1900MB
#P OB98/GEN NMR

erre ene a

0 1
  C      -94.800    -123.765     -80.170
  O      -95.362    -122.469     -80.205
  P      -94.587    -121.234     -80.872
  C      -94.023    -120.380     -78.511
  O      -93.509    -120.756     -79.781
  C      -93.404    -119.070     -78.024
  O      -92.028    -119.305     -77.612
  C      -93.388    -117.943     -79.068
  O      -93.562    -116.721     -78.341
  C      -91.982    -118.036     -79.627
  O      -91.573    -116.844     -80.288
  C      -91.191    -118.397     -78.362
  N      -89.889    -118.980     -78.678
  C      -88.848    -118.086     -78.941
  O      -89.065    -116.871     -78.976
  N      -87.599    -118.586     -79.211
  C      -87.433    -119.868     -79.314
  N      -86.171    -120.305     -79.579
  C      -88.531    -120.840     -79.171
  C      -89.718    -120.334     -78.842
  O      -95.459    -120.151     -81.408
  O      -93.667    -121.924     -81.986
  H      -90.639    -116.953     -80.570
  H      -94.206    -122.162     -82.779
  H      -88.356    -121.895     -79.323
  H      -90.585    -120.969     -78.713
  H      -91.031    -117.509     -77.739
  H      -91.929    -118.857     -80.355
  H      -94.156    -118.048     -79.837
  H      -93.956    -118.747     -77.131
  H      -85.444    -119.604     -79.656
  H      -93.775    -121.171     -77.796
  H      -85.918    -121.283     -79.599
  H      -95.115    -120.302     -78.556
  P      -94.650    -115.634     -78.786
  C      -92.830    -114.332     -80.031
  O      -94.104    -114.945     -80.125
  O      -95.070    -114.682     -77.714
  O      -95.891    -116.506     -79.307
  H      -96.686    -115.942     -79.359
  H      -92.444    -114.153     -81.040
  H      -92.126    -114.970     -79.491
  H      -92.922    -113.375     -79.514
  H      -95.478    -124.435     -79.684
  H      -93.876    -123.739     -79.631
  H      -94.620    -124.103     -81.169

 3  4  5  6  7  8  9  10  11  12  13  23  27  28  29  30  32 0
 6-311+G(2d,p)
 ****
 34  35 0
 6-311+G(2d,p)
 ****
 1  2  14  15  16  17  18  19  20  21  22  24  25  26 0
 3-21G
 ****
 31  33  36  37  38  39  40  41  42  43  44  45  46 0
 3-21G
 ****


