%nproc=1
%NoSave
%Mem=1900MB
#P OB98/GEN NMR

erre ene a

0 1
  C      446.931    1075.255     469.042
  O      446.453    1074.006     469.519
  H      446.197    1076.026     469.280
  H      447.066    1075.211     467.963
  H      447.882    1075.514     469.529
  P      447.473    1072.769     469.446
  C      445.474    1071.287     468.612
  O      446.556    1071.455     469.513
  C      444.184    1070.993     469.372
  O      444.266    1069.665     469.959
  C      443.907    1071.974     470.525
  O      442.493    1072.205     470.590
  C      444.359    1071.225     471.765
  O      443.726    1071.702     472.944
  C      444.058    1069.769     471.379
  N      444.865    1068.805     472.121
  C      444.271    1068.195     473.222
  O      443.118    1068.492     473.539
  N      445.005    1067.303     473.968
  C      446.246    1067.092     473.670
  N      446.922    1066.202     474.457
  C      446.932    1067.749     472.541
  C      446.189    1068.573     471.794
  O      448.157    1072.826     470.886
  O      448.429    1072.830     468.296
  H      442.755    1071.509     472.865
  H      447.545    1073.025     471.614
  H      447.978    1067.552     472.331
  H      446.606    1069.104     470.960
  H      442.981    1069.547     471.572
  H      445.450    1071.350     471.888
  H      444.424    1072.929     470.413
  H      443.339    1070.966     468.667
  H      446.426    1065.794     475.229
  H      445.676    1070.457     467.929
  H      447.905    1066.002     474.345
  H      445.369    1072.202     468.030
  P      441.830    1073.288     469.621
  C      440.867    1075.058     471.240
  O      440.582    1073.975     470.370
  O      441.564    1072.836     468.224
  O      442.920    1074.488     469.629
  H      442.962    1074.853     468.718
  H      439.956    1075.420     471.669
  H      441.338    1075.844     470.688
  H      441.522    1074.727     472.019

 6  7  8  9  10  11  12  13  14  15  16  26  30  31  32  33  35 0
 6-311+G(2d,p)
 ****
 37  38 0
 6-311+G(2d,p)
 ****
 1  2  3  4  5  17  18  19  20  21  22  23  24  25 0
 3-21G
 ****
 27  28  29  34  36  39  40  41  42  43  44  45  46 0
 3-21G
 ****


