%nproc=1
%NoSave
%Mem=1900MB
#P OB98/GEN NMR

erre ene a

0 1
  C      277.663      71.113    -359.793
  O      276.858      70.363    -358.890
  P      276.589      68.822    -359.250
  C      276.157      66.680    -357.847
  O      276.521      68.057    -357.841
  C      275.908      66.184    -356.427
  O      277.137      66.199    -355.687
  C      274.938      67.038    -355.623
  O      273.583      66.733    -355.933
  C      275.283      66.612    -354.202
  O      274.612      65.374    -353.891
  C      276.803      66.388    -354.284
  N      280.664      67.728    -351.290
  C      280.161      66.472    -351.587
  N      280.801      65.425    -351.022
  N      279.129      66.266    -352.359
  C      278.618      67.405    -352.885
  C      279.025      68.702    -352.667
  C      280.135      68.922    -351.769
  O      280.581      70.011    -351.423
  N      278.266      69.591    -353.389
  C      277.431      68.833    -354.074
  N      277.582      67.498    -353.775
  O      277.989      68.340    -359.862
  O      275.456      68.580    -360.189
  H      274.730      64.786    -354.662
  H      277.846      67.584    -360.464
  H      281.469      67.829    -350.707
  H      276.704      69.200    -354.784
  H      277.101      65.478    -353.754
  H      274.973      67.341    -353.449
  H      281.672      65.513    -350.525
  H      275.151      68.108    -355.750
  H      280.467      64.492    -351.252
  H      275.556      65.147    -356.487
  H      276.971      66.092    -358.291
  H      275.259      66.552    -358.464
  P      272.535      67.949    -355.831
  C      270.220      68.316    -356.953
  O      271.498      67.712    -357.026
  O      273.389      69.214    -356.301
  O      271.944      68.135    -354.471
  H      273.027      70.033    -355.911
  H      270.268      69.303    -356.487
  H      269.547      67.677    -356.376
  H      269.822      68.425    -357.963
  H      277.761      72.116    -359.435
  H      277.202      71.122    -360.758
  H      278.632      70.664    -359.865

 3  4  5  6  7  8  9  10  11  12  23  26  30  31  33  0
 6-311+G(2d,p)
 ****
 35  36  37  38 0
 6-311+G(2d,p)
 ****
 1  2  13  14  15  16  17  18  19  20  21  22  24  25  27  28  29 0
 3-21G
 ****
 32  34  39  40  41  42  43  44  45  46  47  48  49 0
 3-21G
 ****


