%nproc=1
%NoSave
%Mem=1900MB
#P OB98/GEN NMR

erre ene a

0 1
  C     -651.713    -421.967    -891.380
  O     -651.157    -422.856    -890.440
  H     -652.412    -421.299    -890.870
  H     -652.262    -422.537    -892.140
  H     -650.935    -421.358    -891.860
  P     -649.960    -423.827    -890.900
  C     -649.747    -425.949    -892.340
  O     -650.625    -425.017    -891.730
  C     -650.557    -427.145    -892.880
  O     -651.455    -426.687    -893.920
  C     -649.693    -428.224    -893.540
  O     -649.031    -429.017    -892.580
  C     -650.739    -428.954    -894.360
  O     -651.476    -429.886    -893.550
  C     -651.635    -427.806    -894.830
  N     -651.397    -427.401    -896.210
  C     -651.932    -428.205    -897.200
  O     -652.620    -429.207    -896.970
  N     -651.621    -427.854    -898.490
  C     -650.728    -426.900    -898.870
  O     -650.288    -426.791    -900.000
  C     -650.226    -426.040    -897.770
  C     -650.568    -426.321    -896.510
  O     -649.017    -424.261    -889.820
  O     -649.205    -422.980    -892.030
  H     -648.386    -422.601    -891.660
  H     -651.973    -430.451    -894.190
  H     -651.992    -428.466    -899.220
  H     -649.573    -425.216    -898.040
  H     -650.175    -425.718    -895.720
  H     -652.714    -428.088    -894.730
  H     -650.291    -429.505    -895.190
  H     -648.963    -427.753    -894.210
  H     -651.162    -427.564    -892.080
  H     -649.045    -426.331    -891.570
  H     -649.193    -425.475    -893.140
  P     -647.619    -429.700    -892.910
  C     -646.602    -430.986    -894.900
  O     -647.807    -430.625    -894.200
  O     -646.935    -430.361    -891.770
  O     -646.746    -428.465    -893.480
  H     -645.867    -428.483    -893.020
  H     -646.848    -431.602    -895.740
  H     -645.954    -431.525    -894.241
  H     -646.108    -430.100    -895.240

 6  7  8  9  10  11  12  13  14  15  16  27  31  32  33  34  35 0
 6-311+G(2d,p)
 ****
 36  37 0
 6-311+G(2d,p)
 ****
 1  2  3  4  5  17  18  19  20  21  22  23  24  25 0
 3-21G
 ****
 26  28  29  30  38  39  40  41  42  43  44  45 0
 3-21G
 ****


