%nproc=1
%NoSave
%Mem=1900MB
#P OB98/GEN NMR

erre ene a

0 1
  C      -18.376     656.264     322.848
  O      -19.169     657.311     322.331
  H      -19.019     655.557     323.378
  H      -17.637     656.664     323.549
  H      -17.866     655.734     322.035
  P      -18.408     658.446     321.492
  C      -18.656     660.735     322.706
  O      -17.902     659.534     322.555
  C      -19.713     660.552     323.785
  O      -19.075     660.187     325.050
  C      -20.519     661.810     324.093
  O      -21.526     662.049     323.131
  C      -21.067     661.484     325.473
  O      -22.252     660.679     325.398
  C      -19.917     660.679     326.117
  N      -17.743     660.791     330.739
  C      -18.390     659.818     330.067
  N      -18.924     659.866     328.827
  C      -18.723     661.077     328.266
  C      -18.086     662.161     328.833
  C      -17.576     661.988     330.127
  N      -16.939     662.993     330.827
  N      -18.112     663.235     327.967
  C      -18.748     662.810     326.890
  N      -19.130     661.496     327.034
  O      -19.605     659.185     320.724
  O      -17.366     657.949     320.546
  H      -22.427     660.375     326.309
  H      -19.653     658.866     319.805
  H      -18.489     658.870     330.595
  H      -18.957     663.392     326.008
  H      -20.276     659.818     326.673
  H      -21.316     662.391     326.016
  H      -19.846     662.684     324.167
  H      -20.373     659.720     323.500
  H      -19.149     660.984     321.753
  H      -17.973     661.549     322.969
  H      -16.661     662.828     331.767
  H      -16.908     663.930     330.422
  P      -21.968     663.578     322.874
  C      -24.434     663.980     323.647
  O      -23.052     663.947     323.985
  O      -22.818     663.506     321.519
  O      -20.830     664.537     322.764
  H      -22.671     664.313     320.987
  H      -25.006     664.244     324.512
  H      -24.739     663.015     323.298
  H      -24.596     664.705     322.877

 6  7  8  9  10  11  12  13  14  15  25  28  32  33  34  35 0
 6-311+G(2d,p)
 ****
 36  37  40 0
 6-311+G(2d,p)
 ****
 1  2  3  4  5  16  17  18  19  20  21  22  23  24 0
 3-21G
 ****
 26  27  29  30  31  38  39 41  42  43  44  45  46  47  48 0
 3-21G
 ****


