%nproc=1
%NoSave
%Mem=1900MB
#P OB98/GEN NMR

erre ene a

0 1
  C       -3.718      61.149     317.699
  O       -3.389      61.754     316.443
  P       -2.006      62.564     316.355
  C       -3.106      64.732     317.332
  O       -2.115      63.722     317.458
  C       -2.824      65.866     318.315
  O       -1.407      66.157     318.366
  C       -3.495      67.184     317.954
  O       -4.884      67.150     318.231
  C       -2.693      68.158     318.808
  O       -3.170      68.145     320.162
  C       -1.277      67.550     318.742
  N       -0.388      68.266     317.836
  C        0.852      68.620     318.358
  O        1.188      68.378     319.517
  N        1.690      69.287     317.507
  C        1.404      69.649     316.222
  O        2.201      70.237     315.502
  C        0.061      69.291     315.743
  C       -0.763      68.626     316.557
  O       -2.182      63.324     314.960
  O       -0.808      61.682     316.452
  H       -3.100      63.593     314.787
  H       -2.946      67.264     320.524
  H        2.599      69.542     317.862
  H       -0.209      69.585     314.737
  H       -1.758      68.355     316.222
  H       -0.818      67.553     319.739
  H       -2.765      69.189     318.445
  H       -3.335      67.403     316.891
  H       -3.145      65.540     319.314
  H       -4.094      64.313     317.542
  H       -3.112      65.095     316.301
  P       -5.852      66.674     317.039
  C       -6.393      69.064     316.131
  O       -5.781      67.812     315.915
  O       -7.292      66.877     317.707
  O       -5.582      65.282     316.568
  H       -7.372      67.717     318.189
  H       -5.954      69.793     315.445
  H       -6.241      69.413     317.155
  H       -7.464      68.989     315.925
  H       -4.659      60.646     317.617
  H       -3.783      61.905     318.453
  H       -2.958      60.444     317.965

 3  4  5  6  7  8  9  10  11  12  13  24  28  29  30  31  32 0
 6-311+G(2d,p)
 ****
 33  34 0
 6-311+G(2d,p)
 ****
 1  2  14  15  16  17  18  19  20  21  22  23  25  26  27 0
 3-21G
 ****
 35  36  37  38  39  40  41  42  43  44  45 0
 3-21G
 ****


