%nproc=1
%NoSave
%Mem=1900MB
#P OB98/GEN NMR

erre ene a

0 1
  C       26.643     150.122    -113.400
  O       26.905     151.156    -112.443
  P       27.769     152.408    -112.969
  C       29.914     151.997    -111.562
  O       29.325     152.019    -112.856
  C       31.345     151.452    -111.595
  O       31.788     151.191    -110.241
  C       31.519     150.149    -112.383
  O       32.785     150.185    -113.058
  C       31.613     149.092    -111.299
  O       32.277     147.914    -111.748
  C       32.359     149.874    -110.218
  N       34.788     147.394    -106.539
  C       35.280     147.946    -107.704
  N       36.604     147.798    -107.930
  N       34.542     148.591    -108.570
  C       33.244     148.691    -108.199
  C       32.637     148.194    -107.065
  C       33.459     147.449    -106.138
  O       33.072     146.889    -105.113
  N       31.297     148.497    -107.039
  C       31.092     149.167    -108.157
  N       32.241     149.304    -108.897
  O       27.557     153.503    -111.821
  O       27.335     152.921    -114.300
  H       32.445     147.363    -110.961
  H       27.197     154.325    -112.208
  H       35.396     146.892    -105.917
  H       30.139     149.552    -108.490
  H       33.426     149.962    -110.457
  H       30.603     148.814    -110.973
  H       37.240     147.371    -107.275
  H       30.718     149.945    -113.103
  H       36.991     148.236    -108.756
  H       31.997     152.233    -112.004
  H       29.308     151.371    -110.900
  H       29.907     153.014    -111.156
  P       32.776     150.743    -114.563
  C       31.960     148.537    -115.674
  O       31.673     149.881    -115.342
  O       34.163     150.213    -115.161
  O       32.641     152.226    -114.665
  H       34.470     150.803    -115.874
  H       32.863     148.171    -115.176
  H       32.100     148.461    -116.756
  H       31.116     147.911    -115.380
  H       26.065     149.348    -112.940
  H       27.569     149.716    -113.749
  H       26.099     150.530    -114.226

 3  4  5  6  7  8  9  10  11  12  23  26  30  31  33  0
 6-311+G(2d,p)
 ****
 35  36  37  38 0
 6-311+G(2d,p)
 ****
 1  2  13  14  15  16  17  18  19  20  21  22  24  25  27  28  29 0
 3-21G
 ****
 32  34  39  40  41  42  43  44  45  46  47  48  49 0
 3-21G
 ****


