%nproc=1
%NoSave
%Mem=1900MB
#P OB98/GEN NMR

erre ene a

0 1
  C       -1.429     103.834    -301.294
  O       -1.819     104.562    -302.438
  H       -1.521     104.479    -300.415
  H       -0.385     103.521    -301.387
  H       -2.071     102.957    -301.157
  P       -1.913     103.765    -303.828
  C       -0.221     103.025    -305.653
  O       -0.431     103.745    -304.448
  C        1.245     103.124    -306.085
  O        1.507     104.480    -306.544
  C        2.239     102.807    -304.964
  O        3.343     102.087    -305.519
  C        2.712     104.179    -304.503
  O        4.003     104.138    -303.897
  C        2.636     104.985    -305.806
  N        2.514     106.417    -305.544
  C        3.682     107.087    -305.157
  O        4.744     106.468    -305.043
  N        3.606     108.426    -304.852
  C        2.458     109.018    -304.843
  N        2.443     110.339    -304.505
  C        1.187     108.338    -305.183
  C        1.293     107.052    -305.525
  O       -2.698     104.778    -304.787
  O       -2.570     102.425    -303.752
  H        3.969     103.517    -303.136
  H       -3.244     104.299    -305.439
  H        0.247     108.871    -305.138
  H        0.417     106.466    -305.779
  H        3.535     104.817    -306.417
  H        2.006     104.577    -303.767
  H        1.799     102.229    -304.148
  H        1.399     102.462    -306.944
  H        3.331     110.764    -304.266
  H       -0.851     103.455    -306.441
  H        1.602     110.888    -304.424
  H       -0.505     101.977    -305.508
  P        3.394     100.510    -305.223
  C        4.617      98.927    -303.565
  O        4.460     100.255    -304.048
  O        4.118      99.914    -306.525
  O        2.050      99.894    -305.008
  H        3.471      99.425    -307.069
  H        5.355      98.914    -302.791
  H        4.930      98.291    -304.366
  H        3.684      98.577    -303.175

 6  7  8  9  10  11  12  13  14  15  16  26  30  31  32  33  35 0
 6-311+G(2d,p)
 ****
 37  38 0
 6-311+G(2d,p)
 ****
 1  2  3  4  5  17  18  19  20  21  22  23  24  25 0
 3-21G
 ****
 27  28  29  34  36  39  40  41  42  43  44  45  46 0
 3-21G
 ****


