%nproc=1
%NoSave
%Mem=1900MB
#P OB98/GEN NMR

erre ene a

0 1
  C       39.069    -274.550     191.334
  O       38.089    -274.590     192.355
  H       39.602    -275.504     191.324
  H       39.786    -273.749     191.531
  H       38.592    -274.398     190.362
  P       37.175    -273.281     192.520
  C       35.592    -272.069     190.865
  O       36.714    -272.930     191.023
  C       35.622    -271.402     189.490
  O       36.684    -270.436     189.422
  C       35.857    -272.361     188.331
  O       34.652    -273.019     187.966
  C       36.318    -271.393     187.252
  O       35.177    -270.733     186.669
  C       37.159    -270.379     188.047
  N       41.703    -268.717     186.328
  C       40.437    -268.350     186.025
  N       39.279    -268.863     186.488
  C       39.514    -269.861     187.355
  C       40.749    -270.343     187.766
  C       41.883    -269.721     187.220
  N       43.171    -270.091     187.542
  N       40.596    -271.377     188.668
  C       39.293    -271.479     188.841
  N       38.595    -270.608     188.041
  O       37.775    -272.166     193.305
  O       35.844    -273.916     193.147
  H       34.622    -270.405     187.402
  H       35.651    -274.777     192.740
  H       40.345    -267.534     185.314
  H       38.811    -272.152     189.541
  H       37.005    -269.355     187.691
  H       36.843    -271.898     186.439
  H       36.666    -273.065     188.551
  H       34.677    -270.856     189.363
  H       35.582    -271.307     191.649
  H       43.918    -269.713     186.980
  H       43.302    -270.919     188.107
  H       34.690    -272.683     190.967
  P       34.693    -274.419     187.182
  C       35.388    -276.784     187.914
  O       35.653    -275.388     188.027
  O       35.029    -274.320     185.733
  O       33.244    -275.051     187.413
  H       32.938    -275.505     186.607
  H       36.085    -277.329     188.516
  H       35.488    -277.084     186.892
  H       34.392    -276.986     188.249

 6  7  8  9  10  11  12  13  14  15  25  28  32  33  34  35 0
 6-311+G(2d,p)
 ****
 36  39  40 0
 6-311+G(2d,p)
 ****
 1  2  3  4  5  16  17  18  19  20  21  22  23  24 0
 3-21G
 ****
 26  27  29  30  31  37  38  41  42  43  44  45  46  47 0
 3-21G
 ****
 48 0
 3-21G
 ****


