%nproc=1
%NoSave
%Mem=1900MB
#P OB98/GEN NMR

erre ene a

0 1
  C     -194.729      55.673     366.120
  O     -193.925      55.545     367.274
  P     -192.522      54.768     367.207
  C     -193.503      53.080     368.894
  O     -192.851      53.257     367.638
  C     -194.548      51.969     368.810
  O     -195.379      52.141     367.642
  C     -193.963      50.569     368.701
  O     -193.496      50.124     369.962
  C     -195.153      49.794     368.155
  O     -196.054      49.415     369.205
  C     -195.812      50.832     367.218
  N     -195.505      50.587     365.814
  C     -196.270      49.599     365.184
  O     -197.117      48.969     365.817
  N     -196.017      49.311     363.861
  C     -195.070      49.943     363.240
  N     -194.861      49.607     361.939
  C     -194.222      50.969     363.877
  C     -194.491      51.236     365.153
  O     -191.400      55.418     367.947
  O     -192.251      54.641     365.632
  H     -195.504      48.996     369.899
  H     -191.976      55.505     365.243
  H     -193.437      51.459     363.319
  H     -193.914      51.972     365.700
  H     -196.906      50.813     367.337
  H     -194.849      48.873     367.648
  H     -193.152      50.561     367.965
  H     -195.192      52.043     369.697
  H     -195.444      48.879     361.546
  H     -193.995      54.021     369.161
  H     -194.129      50.010     361.369
  H     -192.756      52.853     369.660
  P     -191.945      49.795     370.166
  C     -192.440      47.399     370.939
  O     -191.751      48.214     370.005
  O     -191.318      50.392     371.384
  O     -191.261      50.379     368.839
  H     -190.450      50.861     369.084
  H     -192.506      46.385     370.534
  H     -193.449      47.775     371.117
  H     -191.886      47.372     371.878
  H     -195.617      56.218     366.363
  H     -194.994      54.701     365.761
  H     -194.185      56.197     365.362

 3  4  5  6  7  8  9  10  11  12  13  23  27  28  29  30  32 0
 6-311+G(2d,p)
 ****
 34  35 0
 6-311+G(2d,p)
 ****
 1  2  14  15  16  17  18  19  20  21  22  24  25  26 0
 3-21G
 ****
 31  33  36  37  38  39  40  41  42  43  44  45  46 0
 3-21G
 ****


