%nproc=1
%NoSave
%Mem=1900MB
#P OB98/GEN NMR

erre ene a

0 1
  C      269.563      82.871     133.565
  O      268.625      83.293     134.530
  H      270.112      82.014     133.964
  H      270.271      83.679     133.365
  H      269.074      82.572     132.635
  P      267.400      84.207     134.062
  C      266.003      82.161     133.341
  O      266.572      83.402     132.946
  C      264.505      82.105     133.039
  O      263.807      83.060     133.865
  C      264.185      82.462     131.584
  O      264.245      81.369     130.684
  C      262.762      83.002     131.699
  O      261.793      81.947     131.587
  C      262.727      83.617     133.102
  N      260.481      88.060     131.942
  C      260.087      86.777     131.611
  N      258.978      86.679     130.846
  N      260.736      85.706     131.986
  C      261.877      85.969     132.660
  C      262.380      87.197     133.028
  C      261.617      88.375     132.674
  O      261.914      89.530     132.957
  N      263.589      87.076     133.671
  C      263.854      85.785     133.611
  N      262.809      85.066     133.079
  O      268.104      85.364     133.201
  O      266.578      84.799     135.167
  H      260.912      82.325     131.773
  H      267.594      86.189     133.284
  H      259.926      88.844     131.651
  H      264.759      85.316     133.976
  H      261.799      83.359     133.627
  H      262.550      83.710     130.895
  H      258.492      87.470     130.460
  H      264.830      83.272     131.235
  H      258.764      85.773     130.424
  H      264.120      81.112     133.302
  H      266.171      82.069     134.414
  H      266.522      81.331     132.854
  P      264.439      81.607     129.116
  C      267.042      81.788     129.409
  O      265.845      82.322     128.885
  O      263.379      82.760     128.792
  O      264.238      80.403     128.255
  H      262.564      82.382     128.414
  H      267.862      82.420     129.139
  H      267.200      80.808     129.010
  H      266.971      81.732     130.475

 6  7  8  9  10  11  12  13  14  15  26  29  33  34 0
 6-311+G(2d,p)
 ****
 36  38  39  40  41 0
 6-311+G(2d,p)
 ****
 1  2  3  4  5  16  17  18  19  20  21  22  23  24  25 0
 3-21G
 ****
 27  28  30  31  32  35  37  42  43  44  45  46  47 0
 3-21G
 ****
 48  49 0
 3-21G
 ****


