%nproc=1
%NoSave
%Mem=1900MB
#P OB98/GEN NMR

erre ene a

0 1
  C      -52.799       4.766     141.793
  O      -52.783       6.095     141.316
  H      -52.039       4.667     142.572
  H      -52.563       4.068     140.987
  H      -53.774       4.524     142.224
  P      -53.812       6.503     140.154
  C      -55.092       7.924     141.901
  O      -55.162       6.881     140.942
  C      -55.435       9.261     141.253
  O      -56.706       9.204     140.571
  C      -55.577      10.427     142.225
  O      -54.344      10.894     142.744
  C      -56.245      11.444     141.318
  O      -55.273      12.001     140.416
  C      -57.259      10.549     140.569
  N      -58.584      10.560     141.188
  C      -59.491      11.513     140.710
  O      -59.167      12.299     139.821
  N      -60.742      11.579     141.276
  C      -61.051      10.780     142.250
  N      -62.301      10.893     142.777
  C      -60.120       9.775     142.797
  C      -58.920       9.719     142.226
  O      -53.971       5.517     139.043
  O      -53.313       7.943     139.664
  H      -55.767      12.486     139.731
  H      -53.911       8.238     138.936
  H      -60.416       9.154     143.629
  H      -58.177       9.010     142.577
  H      -57.355      10.860     139.522
  H      -56.695      12.277     141.861
  H      -56.271      10.178     143.037
  H      -54.670       9.463     140.492
  H      -62.917      11.592     142.382
  H      -54.081       7.937     142.319
  H      -62.600      10.366     143.586
  H      -55.808       7.739     142.709
  P      -54.179      10.894     144.343
  C      -52.712       8.784     144.806
  O      -54.007       9.363     144.777
  O      -55.641      11.286     144.857
  O      -53.119      11.807     144.873
  H      -55.687      12.236     145.078
  H      -52.785       7.763     145.116
  H      -52.096       9.323     145.495
  H      -52.279       8.830     143.829

 6  7  8  9  10  11  12  13  14  15  16  26  30  31  32  33  35 0
 6-311+G(2d,p)
 ****
 37  38 0
 6-311+G(2d,p)
 ****
 1  2  3  4  5  17  18  19  20  21  22  23  24  25 0
 3-21G
 ****
 27  28  29  34  36  39  40  41  42  43  44  45  46 0
 3-21G
 ****


