%nproc=1
%NoSave
%Mem=1900MB
#P OB98/GEN NMR

erre ene a

0 1
  C      -79.491     138.355    -284.721
  O      -79.723     136.988    -285.100
  P      -80.012     135.897    -283.956
  C      -77.608     135.719    -282.938
  O      -78.657     135.091    -283.662
  C      -76.419     134.761    -282.797
  O      -76.808     133.573    -282.073
  C      -75.860     134.254    -284.119
  O      -75.063     135.229    -284.769
  C      -75.071     133.033    -283.663
  O      -73.771     133.413    -283.179
  C      -75.947     132.502    -282.510
  N      -76.717     131.321    -282.889
  C      -76.027     130.112    -282.901
  O      -74.824     130.019    -282.673
  N      -76.771     129.005    -283.226
  C      -78.085     129.002    -283.596
  O      -78.686     127.978    -283.894
  C      -78.737     130.319    -283.642
  C      -78.032     131.395    -283.296
  O      -80.879     134.805    -284.749
  O      -80.752     136.393    -282.759
  H      -73.309     133.841    -283.926
  H      -81.472     134.345    -284.125
  H      -76.294     128.116    -283.214
  H      -79.770     130.359    -283.951
  H      -78.501     132.376    -283.323
  H      -75.319     132.245    -281.648
  H      -74.913     132.309    -284.470
  H      -76.680     133.927    -284.770
  H      -75.636     135.273    -282.218
  H      -77.967     135.989    -281.942
  H      -77.307     136.631    -283.465
  P      -75.840     136.335    -285.638
  C      -75.008     135.231    -287.859
  O      -75.072     136.382    -287.042
  O      -75.410     137.677    -284.881
  O      -77.313     136.100    -285.699
  H      -74.504     137.623    -284.522
  H      -75.913     134.625    -287.767
  H      -74.138     134.635    -287.574
  H      -74.899     135.544    -288.901
  H      -79.317     138.943    -285.597
  H      -78.636     138.407    -284.080
  H      -80.348     138.732    -284.203

 3  4  5  6  7  8  9  10  11  12  13  23  28  29  30  31  32 0
 6-311+G(2d,p)
 ****
 33  34 0
 6-311+G(2d,p)
 ****
 1  2  14  15  16  17  18  19  20  21  22  24  25  26 0
 3-21G
 ****
 27  35  36  37  38  39  40  41  42  43  44  45 0
 3-21G
 ****


