%nproc=1
%NoSave
%Mem=1900MB
#P OB98/GEN NMR

erre ene a

0 1
  C     -329.439      51.829      13.506
  O     -328.740      51.360      14.641
  H     -329.008      52.772      13.155
  H     -329.357      51.083      12.710
  H     -330.497      51.970      13.748
  P     -328.656      52.367      15.890
  C     -328.008      54.868      16.121
  O     -327.874      53.671      15.370
  C     -326.719      55.675      16.064
  O     -325.650      54.952      16.708
  C     -326.212      55.971      14.657
  O     -326.918      57.047      14.055
  C     -324.765      56.344      14.951
  O     -324.699      57.708      15.404
  C     -324.406      55.390      16.101
  N     -319.896      52.943      16.362
  C     -320.326      54.103      16.910
  N     -321.531      54.698      16.786
  C     -322.350      53.962      16.018
  C     -322.053      52.760      15.395
  C     -320.759      52.249      15.584
  N     -320.325      51.073      15.005
  N     -323.148      52.290      14.698
  C     -324.090      53.190      14.895
  N     -323.652      54.224      15.684
  O     -327.590      51.664      16.864
  O     -329.946      52.631      16.590
  H     -325.001      58.264      14.660
  H     -327.856      51.825      17.790
  H     -319.601      54.627      17.530
  H     -325.094      53.134      14.499
  H     -323.834      55.904      16.883
  H     -324.114      56.255      14.077
  H     -326.236      55.074      14.031
  H     -326.877      56.606      16.627
  H     -328.231      54.618      17.166
  H     -319.468      50.659      15.334
  H     -320.984      50.555      14.431
  H     -328.842      55.449      15.713
  P     -327.138      56.989      12.464
  C     -325.582      57.196      10.397
  O     -325.680      57.154      11.817
  O     -327.845      58.390      12.145
  O     -327.951      55.835      11.978
  H     -328.376      58.314      11.327
  H     -324.556      57.308      10.113
  H     -326.148      58.024      10.025
  H     -325.968      56.287       9.986

 6  7  8  9  10  11  12  13  14  15  25  28  32  33  34  35 0
 6-311+G(2d,p)
 ****
 36  39  40 0
 6-311+G(2d,p)
 ****
 1  2  3  4  5  16  17  18  19  20  21  22  23  24 0
 3-21G
 ****
 26  27  29  30  31  37  38  41  42  43  44  45  46  47  48 0
 3-21G
 ****


