%nproc=1
%NoSave
%Mem=1900MB
#P OB98/GEN NMR

erre ene a

0 1
  C     1193.896     142.477    -276.746
  O     1192.853     141.829    -277.455
  H     1193.499     142.847    -275.798
  H     1194.286     143.326    -277.318
  H     1194.702     141.769    -276.529
  P     1193.163     141.298    -278.940
  C     1192.132     143.420    -280.009
  O     1193.281     142.593    -279.876
  C     1192.481     144.731    -280.716
  O     1193.307     144.416    -281.882
  C     1191.260     145.520    -281.222
  O     1191.606     146.913    -281.201
  C     1191.128     145.006    -282.646
  O     1190.278     145.824    -283.404
  C     1192.612     144.957    -283.039
  N     1192.842     144.154    -284.235
  C     1193.312     144.842    -285.352
  O     1193.506     146.066    -285.310
  N     1193.534     144.143    -286.516
  C     1193.233     142.870    -286.568
  N     1193.453     142.248    -287.743
  C     1192.669     142.126    -285.425
  C     1192.506     142.830    -284.299
  O     1192.243     140.232    -279.449
  O     1194.675     140.770    -278.852
  H     1189.375     145.842    -283.023
  H     1194.680     139.801    -278.834
  H     1192.413     141.080    -285.521
  H     1192.102     142.362    -283.404
  H     1193.010     145.961    -283.219
  H     1190.703     144.011    -282.658
  H     1190.368     145.340    -280.603
  H     1193.098     145.336    -280.048
  H     1193.825     142.791    -288.513
  H     1191.762     143.630    -279.000
  H     1193.233     141.278    -287.910
  H     1191.349     142.895    -280.560
  P     1190.828     147.980    -280.292
  C     1188.948     148.731    -281.892
  O     1189.273     148.012    -280.704
  O     1191.483     149.322    -280.267
  O     1190.804     147.354    -278.816
  H     1190.822     148.064    -278.168
  H     1187.893     148.681    -282.061
  H     1189.463     148.298    -282.723
  H     1189.244     149.753    -281.782

 6  7  8  9  10  11  12  13  14  15  16  26  30  31  32  33  35 0
 6-311+G(2d,p)
 ****
 37  38 0
 6-311+G(2d,p)
 ****
 1  2  3  4  5  17  18  19  20  21  22  23  24  25 0
 3-21G
 ****
 27  28  29  34  36  39  40  41  42  43  44  45  46 0
 3-21G
 ****


