%nproc=1
%NoSave
%Mem=1900MB
#P OB98/GEN NMR

erre ene a

0 1
  C        0.657    -622.103    -207.897
  O        0.324    -620.740    -207.761
  H        0.181    -622.664    -207.090
  H        1.740    -622.233    -207.823
  H        0.300    -622.495    -208.857
  P        0.755    -619.765    -208.963
  C        3.012    -619.229    -210.133
  O        2.360    -619.750    -208.982
  C        4.231    -618.410    -209.728
  O        5.073    -619.181    -208.834
  C        5.115    -617.984    -210.893
  O        4.622    -616.817    -211.534
  C        6.422    -617.702    -210.162
  O        6.333    -616.425    -209.490
  C        6.460    -618.833    -209.132
  N       10.987    -620.892    -210.137
  C       10.667    -619.619    -209.689
  N       11.696    -618.777    -209.488
  N        9.442    -619.215    -209.461
  C        8.509    -620.164    -209.715
  C        8.705    -621.454    -210.163
  C       10.060    -621.891    -210.402
  O       10.403    -623.011    -210.778
  N        7.515    -622.125    -210.288
  C        6.603    -621.238    -209.948
  N        7.152    -620.031    -209.598
  O        0.379    -618.305    -208.411
  O        0.097    -620.039    -210.272
  H        6.213    -615.753    -210.187
  H        0.065    -617.762    -209.157
  H       11.941    -621.146    -210.308
  H        5.535    -621.419    -209.933
  H        6.933    -618.534    -208.193
  H        7.276    -617.652    -210.834
  H       12.658    -619.008    -209.690
  H        5.268    -618.803    -211.604
  H       11.489    -617.848    -209.127
  H        3.879    -617.536    -209.165
  H        2.308    -618.590    -210.682
  H        3.308    -620.059    -210.778
  P        5.009    -616.594    -213.078
  C        7.253    -616.368    -214.366
  O        6.606    -616.435    -213.098
  O        4.487    -615.108    -213.370
  O        4.436    -617.590    -214.024
  H        4.328    -614.991    -214.327
  H        8.308    -616.263    -214.223
  H        6.882    -615.526    -214.912
  H        7.055    -617.265    -214.915

 6  7  8  9  10  11  12  13  14  15  26  29  33  34 0
 6-311+G(2d,p)
 ****
 36  38  39  40  41 0
 6-311+G(2d,p)
 ****
 1  2  3  4  5  16  17  18  19  20  21  22  23  24  25 0
 3-21G
 ****
 27  28  30  31  32  35  37  42  43  44  45  46  47 0
 3-21G
 ****
 48  49 0
 3-21G
 ****


