%nproc=1
%NoSave
%Mem=1900MB
#P OB98/GEN NMR

erre ene a

0 1
  C      381.592     657.990     254.050
  O      382.207     657.638     255.278
  P      382.247     658.750     256.434
  C      383.609     657.014     257.822
  O      383.458     658.370     257.415
  C      385.032     656.768     258.304
  O      385.960     656.936     257.206
  C      385.513     657.706     259.402
  O      384.955     657.360     260.664
  C      387.023     657.503     259.300
  O      387.407     656.292     259.954
  C      387.224     657.375     257.781
  N      391.188     660.327     256.411
  C      391.126     659.147     257.052
  N      390.039     658.423     257.402
  C      388.913     659.068     257.001
  C      388.822     660.285     256.364
  C      390.026     660.928     256.051
  N      390.092     662.144     255.394
  N      387.505     660.612     256.135
  C      386.807     659.612     256.621
  N      387.619     658.638     257.156
  O      380.938     658.417     257.308
  O      382.235     660.180     255.954
  H      387.144     656.378     260.889
  H      380.539     659.228     257.671
  H      392.089     658.690     257.329
  H      385.728     659.536     256.624
  H      387.986     656.636     257.517
  H      387.590     658.329     259.757
  H      385.252     658.755     259.147
  H      385.103     655.715     258.638
  H      383.391     656.357     256.983
  H      390.975     662.601     255.352
  H      389.217     662.646     255.248
  H      382.880     656.806     258.616
  P      384.513     658.558     261.634
  C      384.335     656.763     263.456
  O      384.878     658.011     263.100
  O      382.917     658.444     261.600
  O      385.081     659.900     261.281
  H      382.617     657.524     261.744
  H      384.689     656.473     264.459
  H      384.633     655.978     262.741
  H      383.236     656.818     263.490
  H      381.637     657.159     253.377
  H      382.105     658.825     253.621
  H      380.569     658.252     254.225

 3  4  5  6  7  8  9  10  11  12  22  25  29  30  31  32 0
 6-311+G(2d,p)
 ****
 33  36  37 0
 6-311+G(2d,p)
 ****
 1  2  13  14  15  16  17  18  19  20  21  23  24  26 0
 3-21G
 ****
 27  28  34  35  38  39  40  41  42  43  44  45  46  47  48 0
 3-21G
 ****


