%nproc=1
%NoSave
%Mem=1900MB
#P OB98/GEN NMR

erre ene a

0 1
  C      -23.712     191.862     433.291
  O      -24.139     191.032     434.355
  H      -23.819     191.314     432.351
  H      -22.659     192.140     433.412
  H      -24.325     192.767     433.246
  P      -23.933     191.553     435.855
  C      -25.064     189.361     436.639
  O      -23.953     190.240     436.775
  C      -24.802     188.066     437.400
  O      -23.697     187.350     436.812
  C      -24.418     188.294     438.859
  O      -25.554     188.629     439.632
  C      -23.759     186.967     439.192
  O      -24.741     185.959     439.473
  C      -23.006     186.654     437.875
  N      -21.602     187.040     437.926
  C      -20.834     186.426     438.925
  O      -21.345     185.614     439.693
  N      -19.512     186.775     439.036
  C      -18.993     187.637     438.222
  N      -17.674     187.939     438.391
  C      -19.759     188.298     437.146
  C      -21.047     187.961     437.067
  O      -24.843     192.648     436.325
  O      -22.393     191.998     435.888
  H      -25.053     186.135     440.384
  H      -22.302     192.936     435.632
  H      -19.285     189.006     436.488
  H      -21.683     188.389     436.299
  H      -23.062     185.584     437.646
  H      -23.112     187.048     440.062
  H      -23.655     189.081     438.928
  H      -25.695     187.431     437.324
  H      -17.187     187.469     439.148
  H      -25.186     189.151     435.572
  H      -17.144     188.527     437.758
  H      -25.981     189.835     437.006
  P      -25.386     189.307     441.076
  C      -27.944     189.060     441.324
  O      -26.669     188.832     441.924
  O      -25.138     190.779     441.059
  O      -24.190     188.467     441.737
  H      -23.319     188.710     441.339
  H      -28.714     188.705     441.977
  H      -27.998     188.538     440.392
  H      -28.076     190.108     441.154

 6  7  8  9  10  11  12  13  14  15  16  26  30  31  32  33  35 0
 6-311+G(2d,p)
 ****
 37  38 0
 6-311+G(2d,p)
 ****
 1  2  3  4  5  17  18  19  20  21  22  23  24  25 0
 3-21G
 ****
 27  28  29  34  36  39  40  41  42  43  44  45  46 0
 3-21G
 ****


