%nproc=1
%NoSave
%Mem=1900MB
#P OB98/GEN NMR

erre ene a

0 1
  C      -29.192       7.163     336.194
  O      -28.371       8.304     336.078
  H      -28.771       6.462     336.920
  H      -30.181       7.478     336.558
  H      -29.310       6.682     335.220
  P      -26.856       8.055     335.606
  C      -25.813       8.226     337.980
  O      -26.061       7.396     336.850
  C      -25.344       7.377     339.149
  O      -24.029       6.807     338.797
  C      -25.169       8.154     340.488
  O      -25.977       7.545     341.507
  C      -23.711       7.969     340.865
  O      -23.503       7.728     342.254
  C      -23.271       6.756     340.020
  N      -18.680       7.271     342.158
  C      -19.866       6.904     342.669
  N      -21.029       6.676     342.034
  C      -20.878       6.843     340.707
  C      -19.725       7.197     340.024
  C      -18.574       7.438     340.800
  N      -17.377       7.870     340.268
  N      -19.969       7.303     338.663
  C      -21.255       7.036     338.532
  N      -21.854       6.790     339.739
  O      -26.248       9.539     335.518
  O      -26.713       7.322     334.309
  H      -22.540       7.722     342.400
  H      -25.781       9.646     334.660
  H      -19.884       6.780     343.758
  H      -21.825       7.062     337.602
  H      -23.507       5.801     340.527
  H      -23.145       8.857     340.573
  H      -25.411       9.217     340.387
  H      -26.017       6.533     339.284
  H      -26.732       8.747     338.266
  H      -16.651       8.124     340.918
  H      -17.331       8.090     339.288
  H      -25.069       8.986     337.700
  P      -27.370       8.285     341.848
  C      -26.210      10.074     343.362
  O      -27.022       9.810     342.206
  O      -27.769       7.654     343.270
  O      -28.435       8.089     340.821
  H      -28.746       7.679     343.382
  H      -26.069      11.130     343.465
  H      -25.259       9.596     343.247
  H      -26.697       9.693     344.235

 6  7  8  9  10  11  12  13  14  15  25  28  32  33  34  35 0
 6-311+G(2d,p)
 ****
 36  39  40 0
 6-311+G(2d,p)
 ****
 1  2  3  4  5  16  17  18  19  20  21  22  23  24 0
 3-21G
 ****
 26  27  29  30  31  37  38  41  42  43  44  45  46  47  48 0
 3-21G
 ****


