%nproc=1
%NoSave
%Mem=1900MB
#P OB98/GEN NMR

erre ene a

0 1
  C     -895.070    1043.396     375.994
  O     -894.030    1042.756     376.724
  P     -894.310    1041.297     377.311
  C     -894.610    1040.341     379.700
  O     -894.780    1041.452     378.853
  C     -894.720    1040.782     381.170
  O     -893.580    1041.547     381.562
  C     -895.970    1041.623     381.465
  O     -896.460    1041.348     382.789
  C     -895.430    1043.043     381.474
  O     -896.260    1043.931     382.222
  C     -894.030    1042.816     382.073
  N     -890.810    1046.175     384.039
  C     -891.390    1045.066     384.616
  N     -891.140    1044.880     385.949
  N     -892.140    1044.217     383.980
  C     -892.310    1044.533     382.659
  C     -891.780    1045.611     381.972
  C     -890.970    1046.546     382.709
  O     -890.450    1047.572     382.266
  N     -892.160    1045.574     380.667
  C     -892.950    1044.519     380.555
  N     -893.100    1043.873     381.768
  O     -892.830    1040.670     377.417
  O     -895.200    1040.446     376.455
  H     -896.220    1043.641     383.171
  H     -892.700    1039.997     376.709
  H     -890.250    1046.815     384.579
  H     -893.450    1044.186     379.645
  H     -894.070    1042.696     383.167
  H     -895.350    1043.427     380.449
  H     -890.610    1045.540     386.522
  H     -896.790    1041.501     380.755
  H     -891.590    1044.099     386.418
  H     -894.720    1039.866     381.803
  H     -893.620    1039.903     379.554
  H     -895.360    1039.575     379.482
  P     -898.010    1041.565     383.038
  C     -899.360    1043.722     383.658
  O     -898.250    1043.165     382.972
  O     -898.200    1041.208     384.598
  O     -898.900    1040.762     382.138
  H     -899.130    1040.904     384.746
  H     -898.970    1044.391     384.451
  H     -900.000    1042.964     384.113
  H     -899.940    1044.307     382.954
  H     -894.736    1044.359     375.667
  H     -895.928    1043.511     376.622
  H     -895.328    1042.800     375.143

 3  4  5  6  7  8  9  10  11  12  23  26  30  31 0
 6-311+G(2d,p)
 ****
 33  35  36  37  38 0
 6-311+G(2d,p)
 ****
 1  2  13  14  15  16  17  18  19  20  21  22  24  25 0
 3-21G
 ****
 27  28  29  32  34  39  40  41  42  43  44  45  46  47  48  49 0
 3-21G
 ****


