%nproc=1
%NoSave
%Mem=1900MB
#P OB98/GEN NMR

erre ene a

0 1
  C     -281.046       3.970     129.766
  O     -280.839       2.584     129.579
  H     -280.425       4.519     129.051
  H     -280.764       4.273     130.779
  H     -282.095       4.223     129.581
  P     -281.509       1.555     130.610
  C     -283.938       1.636     129.747
  O     -282.740       0.872     129.834
  C     -284.969       0.934     128.858
  O     -284.259       0.192     127.830
  C     -285.868      -0.051     129.620
  O     -287.184       0.019     129.060
  C     -285.230      -1.390     129.316
  O     -286.154      -2.452     129.455
  C     -284.694      -1.183     127.896
  N     -283.602      -2.116     127.597
  C     -283.879      -3.122     126.661
  O     -284.988      -3.179     126.118
  N     -282.926      -4.074     126.407
  C     -281.811      -4.061     127.068
  N     -280.922      -5.057     126.793
  C     -281.486      -3.038     128.089
  C     -282.418      -2.106     128.297
  O     -281.849       2.101     131.959
  O     -280.440       0.365     130.708
  H     -286.484      -2.477     130.381
  H     -279.813       0.541     131.436
  H     -280.544      -3.078     128.618
  H     -282.267      -1.320     129.034
  H     -285.487      -1.321     127.153
  H     -284.399      -1.570     130.014
  H     -285.909       0.149     130.696
  H     -285.567       1.698     128.341
  H     -281.200      -5.751     126.109
  H     -283.686       2.610     129.316
  H     -280.042      -5.177     127.278
  H     -284.356       1.789     130.751
  P     -288.339       0.880     129.778
  C     -287.639       3.347     129.805
  O     -288.383       2.347     129.112
  O     -288.282       0.877     131.269
  O     -289.699       0.204     129.259
  H     -290.389       0.301     129.946
  H     -287.729       4.280     129.289
  H     -286.609       3.060     129.847
  H     -288.021       3.451     130.799

 6  7  8  9  10  11  12  13  14  15  16  26  30  31  32  33  35 0
 6-311+G(2d,p)
 ****
 37  38 0
 6-311+G(2d,p)
 ****
 1  2  3  4  5  17  18  19  20  21  22  23  24  25 0
 3-21G
 ****
 27  28  29  34  36  39  40  41  42  43  44  45  46 0
 3-21G
 ****


