%nproc=1
%NoSave
%Mem=1900MB
#P OB98/GEN NMR

erre ene a

0 1
  C      396.177    -288.980    -145.951
  O      394.886    -289.088    -146.517
  H      396.137    -289.313    -144.911
  H      396.518    -287.938    -145.973
  H      396.882    -289.611    -146.500
  P      394.717    -288.541    -148.018
  C      393.308    -286.491    -147.231
  O      394.513    -286.958    -147.819
  C      392.860    -285.207    -147.924
  O      393.853    -284.169    -147.767
  C      392.660    -285.354    -149.430
  O      391.425    -285.974    -149.763
  C      392.690    -283.892    -149.850
  O      391.441    -283.267    -149.508
  C      393.837    -283.354    -148.970
  N      395.143    -283.402    -149.637
  C      395.244    -282.744    -150.866
  O      394.272    -282.171    -151.354
  N      396.447    -282.777    -151.540
  C      397.460    -283.407    -151.028
  N      398.613    -283.420    -151.744
  C      397.401    -284.097    -149.729
  C      396.230    -284.058    -149.091
  O      393.252    -289.035    -148.436
  O      395.794    -288.921    -148.982
  H      391.469    -282.363    -149.871
  H      393.002    -288.638    -149.306
  H      398.270    -284.615    -149.344
  H      396.109    -284.542    -148.133
  H      393.646    -282.321    -148.660
  H      392.836    -283.763    -150.925
  H      393.499    -285.872    -149.901
  H      391.942    -284.858    -147.430
  H      398.609    -282.995    -152.662
  H      393.500    -286.298    -146.168
  H      399.392    -284.032    -151.513
  H      392.522    -287.249    -147.322
  P      391.446    -287.087    -150.923
  C      390.249    -285.621    -152.699
  O      391.435    -286.308    -152.327
  O      389.976    -287.718    -150.841
  O      392.515    -288.129    -150.780
  H      389.998    -288.682    -150.985
  H      390.391    -285.154    -153.651
  H      390.024    -284.875    -151.966
  H      389.438    -286.317    -152.761

 6  7  8  9  10  11  12  13  14  15  16  26  30  31  32  33  35 0
 6-311+G(2d,p)
 ****
 37  38 0
 6-311+G(2d,p)
 ****
 1  2  3  4  5  17  18  19  20  21  22  23  24  25 0
 3-21G
 ****
 27  28  29  34  36  39  40  41  42  43  44  45  46 0
 3-21G
 ****


