%nproc=1
%NoSave
%Mem=1900MB
#P OB98/GEN NMR

erre ene a

0 1
  C      182.648    -192.853    -671.047
  O      183.445    -194.043    -670.995
  P      183.398    -194.844    -669.595
  C      184.866    -193.275    -668.118
  O      183.558    -193.774    -668.405
  C      184.807    -192.006    -667.265
  O      186.129    -191.756    -666.696
  C      184.405    -190.733    -668.029
  O      183.601    -189.918    -667.160
  C      185.724    -190.008    -668.241
  O      185.540    -188.613    -668.443
  C      186.444    -190.381    -666.934
  N      190.192    -187.160    -668.062
  C      188.826    -186.942    -667.978
  N      188.396    -185.686    -668.260
  N      187.954    -187.862    -667.645
  C      188.532    -189.064    -667.374
  C      189.875    -189.413    -667.410
  C      190.808    -188.380    -667.823
  O      192.019    -188.534    -667.968
  N      190.062    -190.719    -667.063
  C      188.836    -191.182    -666.819
  N      187.882    -190.210    -667.001
  O      184.798    -195.640    -669.589
  O      182.250    -195.783    -669.466
  H      186.377    -188.263    -668.816
  H      184.639    -196.601    -669.490
  H      190.808    -186.423    -668.338
  H      188.598    -192.187    -666.539
  H      186.073    -189.782    -666.095
  H      186.227    -190.437    -669.117
  H      189.019    -184.905    -668.444
  H      183.872    -190.925    -668.954
  H      187.423    -185.487    -668.153
  H      184.121    -192.185    -666.426
  H      185.379    -193.066    -669.056
  H      185.426    -194.065    -667.595
  P      182.108    -189.579    -667.670
  C      182.898    -187.703    -669.293
  O      182.292    -188.962    -669.149
  O      181.697    -188.304    -666.790
  O      181.141    -190.709    -667.536
  H      180.727    -188.261    -666.692
  H      183.367    -187.344    -668.375
  H      182.140    -186.972    -669.605
  H      183.669    -187.765    -670.077
  H      182.747    -192.399    -672.011
  H      182.980    -192.169    -670.294
  H      181.622    -193.103    -670.875

 3  4  5  6  7  8  9  10  11  12  23  26  30  31  33  0
 6-311+G(2d,p)
 ****
 35  36  37  38 0
 6-311+G(2d,p)
 ****
 1  2  13  14  15  16  17  18  19  20  21  22  24  25  27  28  29 0
 3-21G
 ****
 32  34  39  40  41  42  43  44  45  46  47  48  49 0
 3-21G
 ****


