%nproc=1
%NoSave
%Mem=1900MB
#P OB98/GEN NMR

erre ene a

0 1
  C      567.572    -190.925    -528.889
  O      568.360    -189.911    -528.286
  P      567.683    -188.690    -527.497
  C      566.610    -187.591    -529.564
  O      567.618    -187.496    -528.567
  C      566.388    -186.233    -530.226
  O      565.822    -185.330    -529.240
  C      567.643    -185.527    -530.733
  O      568.066    -185.931    -532.025
  C      567.157    -184.087    -530.796
  O      566.363    -183.886    -531.974
  C      566.277    -183.995    -529.538
  N      566.711    -180.012    -526.353
  C      565.866    -180.263    -527.379
  N      565.827    -181.341    -528.197
  C      566.757    -182.235    -527.831
  C      567.681    -182.135    -526.804
  C      567.636    -180.953    -526.041
  N      568.478    -180.714    -524.974
  N      568.487    -183.251    -526.753
  C      568.046    -184.027    -527.722
  N      566.999    -183.461    -528.396
  O      568.320    -188.368    -526.191
  O      566.148    -189.123    -527.351
  H      566.945    -184.043    -532.745
  H      565.715    -188.575    -526.662
  H      565.129    -179.488    -527.582
  H      568.453    -184.994    -527.971
  H      565.391    -183.376    -529.697
  H      567.976    -183.363    -530.833
  H      568.470    -185.599    -530.008
  H      565.659    -186.359    -531.035
  H      565.680    -187.914    -529.082
  H      568.290    -179.902    -524.404
  H      569.059    -181.480    -524.644
  H      566.897    -188.346    -530.297
  P      569.228    -187.044    -532.111
  C      570.852    -185.896    -530.403
  O      570.590    -186.275    -531.737
  O      569.255    -187.821    -533.382
  O      568.951    -187.945    -530.818
  H      569.094    -187.505    -529.964
  H      571.889    -185.541    -530.334
  H      570.726    -186.744    -529.723
  H      570.182    -185.085    -530.100
  H      568.212    -191.641    -529.361
  H      566.926    -190.487    -529.621
  H      566.983    -191.412    -528.140

 3  4  5  6  7  8  9  10  11  12  22  25  29  30  31  32 0
 6-311+G(2d,p)
 ****
 33  36  37 0
 6-311+G(2d,p)
 ****
 1  2  13  14  15  16  17  18  19  20  21  23  24  26 0
 3-21G
 ****
 27  28  34  35  38  39  40  41  42  43  44  45  46  47  48 0
 3-21G
 ****


