%nproc=1
%NoSave
%Mem=1900MB
#P OB98/GEN NMR

erre ene a

0 1
  C     -204.718    -225.300     589.495
  O     -203.570    -224.940     590.234
  H     -204.452    -225.357     588.436
  H     -205.499    -224.545     589.624
  H     -205.089    -226.276     589.822
  P     -203.746    -224.795     591.823
  C     -203.823    -222.225     591.465
  O     -203.257    -223.305     592.193
  C     -203.121    -220.914     591.831
  O     -203.472    -220.555     593.200
  C     -201.589    -220.984     591.753
  O     -201.094    -219.739     591.253
  C     -201.177    -221.131     593.205
  O     -199.836    -220.699     593.435
  C     -202.238    -220.275     593.888
  N     -201.565    -218.339     598.486
  C     -201.412    -217.766     597.241
  N     -201.015    -216.471     597.210
  N     -201.630    -218.400     596.117
  C     -202.046    -219.678     596.299
  C     -202.228    -220.369     597.476
  C     -201.961    -219.658     598.711
  O     -202.058    -220.117     599.846
  N     -202.625    -221.658     597.236
  C     -202.690    -221.748     595.917
  N     -202.347    -220.572     595.306
  O     -202.582    -225.726     592.413
  O     -205.089    -225.164     592.359
  H     -199.800    -219.733     593.266
  H     -202.843    -226.096     593.279
  H     -201.373    -217.806     599.317
  H     -202.966    -222.633     595.359
  H     -202.032    -219.204     593.805
  H     -201.254    -222.181     593.519
  H     -200.860    -215.911     598.030
  H     -201.219    -221.803     591.128
  H     -200.906    -216.027     596.304
  H     -203.513    -220.116     591.189
  H     -204.889    -222.149     591.710
  H     -203.711    -222.414     590.394
  P     -200.915    -219.593     589.664
  C     -198.334    -219.907     589.612
  O     -199.437    -219.043     589.357
  O     -201.858    -218.341     589.309
  O     -201.322    -220.811     588.895
  H     -202.647    -218.652     588.839
  H     -197.423    -219.406     589.361
  H     -198.429    -220.792     589.018
  H     -198.321    -220.173     590.648

 6  7  8  9  10  11  12  13  14  15  26  29  33  34 0
 6-311+G(2d,p)
 ****
 36  38  39  40  41 0
 6-311+G(2d,p)
 ****
 1  2  3  4  5  16  17  18  19  20  21  22  23  24  25 0
 3-21G
 ****
 27  28  30  31  32  35  37  42  43  44  45  46  47 0
 3-21G
 ****
 48  49 0
 3-21G
 ****


