%nproc=1
%NoSave
%Mem=1900MB
#P OB98/GEN NMR

erre ene a

0 1
  C     -215.906    -822.808     376.668
  O     -215.603    -823.602     375.515
  P     -216.236    -825.077     375.414
  C     -217.334    -824.687     373.114
  O     -217.534    -825.025     374.481
  C     -218.452    -825.297     372.232
  O     -218.435    -826.734     372.344
  C     -219.851    -824.811     372.621
  O     -220.608    -824.314     371.506
  C     -220.453    -826.006     373.349
  O     -221.880    -826.010     373.336
  C     -219.760    -827.196     372.676
  N     -219.748    -828.379     373.546
  C     -220.688    -829.363     373.266
  O     -221.560    -829.245     372.403
  N     -220.662    -830.463     374.080
  C     -219.833    -830.647     375.144
  O     -219.884    -831.657     375.851
  C     -218.895    -829.559     375.435
  C     -218.902    -828.491     374.619
  O     -216.399    -825.810     376.690
  O     -215.179    -825.838     374.457
  H     -222.197    -826.740     373.916
  H     -215.070    -826.751     374.801
  H     -221.326    -831.202     373.864
  H     -218.248    -829.650     376.291
  H     -218.232    -827.649     374.815
  H     -220.265    -827.478     371.751
  H     -220.130    -825.949     374.398
  H     -219.813    -823.956     373.304
  H     -218.225    -825.028     371.186
  H     -216.382    -825.065     372.778
  H     -217.295    -823.596     372.997
  P     -221.179    -822.828     371.388
  C     -219.479    -821.821     369.719
  O     -219.952    -821.846     371.047
  O     -222.054    -822.378     372.519
  O     -222.028    -822.865     370.036
  H     -222.840    -822.355     370.138
  H     -218.453    -821.425     369.735
  H     -220.081    -821.166     369.092
  H     -219.425    -822.827     369.283
  H     -215.415    -821.861     376.588
  H     -215.566    -823.313     377.548
  H     -216.964    -822.657     376.729

 3  4  5  6  7  8  9  10  11  12  13  23  28  29  30  31  32 0
 6-311+G(2d,p)
 ****
 33  34 0
 6-311+G(2d,p)
 ****
 1  2  14  15  16  17  18  19  20  21  22  24  25  26  27 0
 3-21G
 ****
 35  36  37  38  39  40  41  42  43  44  45 0
 3-21G
 ****


