%nproc=1
%NoSave
%Mem=1900MB
#P OB98/GEN NMR

erre ene a

0 1
  C       42.533      87.406     -43.801
  O       42.598      87.656     -42.411
  H       41.501      87.541     -44.134
  H       42.839      86.376     -44.008
  H       43.176      88.104     -44.345
  P       44.062      87.686     -41.751
  C       45.941      89.516     -41.620
  O       44.650      89.144     -42.068
  C       46.004      91.021     -41.348
  O       45.982      91.723     -42.616
  C       44.839      91.542     -40.505
  O       45.324      92.587     -39.660
  C       43.894      92.131     -41.540
  O       43.024      93.109     -40.977
  C       44.889      92.664     -42.583
  N       44.279      92.828     -43.901
  C       43.814      94.106     -44.223
  O       43.914      95.026     -43.410
  N       43.209      94.305     -45.438
  C       43.024      93.302     -46.237
  N       42.395      93.560     -47.414
  C       43.458      91.928     -45.920
  C       44.080      91.766     -44.753
  O       44.883      86.724     -42.731
  O       44.100      87.282     -40.315
  H       43.564      93.876     -40.684
  H       44.706      86.888     -43.672
  H       43.271      91.121     -46.614
  H       44.440      90.793     -44.443
  H       45.294      93.634     -42.269
  H       43.274      91.341     -41.976
  H       44.372      90.763     -39.900
  H       46.965      91.249     -40.875
  H       42.094      94.512     -47.582
  H       46.694      89.252     -42.368
  H       42.149      92.849     -48.086
  H       46.157      88.955     -40.706
  P       46.016      92.216     -38.266
  C       48.413      92.263     -37.295
  O       47.605      92.155     -38.462
  O       45.420      91.062     -37.534
  O       45.831      93.567     -37.412
  H       45.599      93.312     -36.498
  H       49.446      92.207     -37.570
  H       48.179      91.463     -36.624
  H       48.222      93.200     -36.814

 6  7  8  9  10  11  12  13  14  15  16  26  30  31  32  33  35 0
 6-311+G(2d,p)
 ****
 37  38 0
 6-311+G(2d,p)
 ****
 1  2  3  4  5  17  18  19  20  21  22  23  24  25 0
 3-21G
 ****
 27  28  29  34  36  39  40  41  42  43  44  45  46 0
 3-21G
 ****


