%nproc=1
%NoSave
%Mem=1900MB
#P OB98/GEN NMR

erre ene a

0 1
  C      -58.370      -3.634      -8.419
  O      -57.979      -4.576      -7.441
  H      -57.565      -2.917      -8.602
  H      -58.590      -4.164      -9.349
  H      -59.271      -3.106      -8.091
  P      -57.510      -3.981      -6.027
  C      -55.547      -2.493      -5.223
  O      -56.101      -3.256      -6.284
  C      -54.025      -2.522      -5.293
  O      -53.566      -1.808      -6.459
  C      -53.320      -1.864      -4.114
  O      -53.288      -2.710      -2.973
  C      -51.929      -1.658      -4.697
  O      -51.186      -2.889      -4.623
  C      -52.232      -1.316      -6.164
  N      -49.185       2.755      -6.875
  C      -48.910       1.460      -6.597
  N      -49.768       0.438      -6.411
  C      -51.038       0.849      -6.552
  C      -51.472       2.134      -6.835
  C      -50.482       3.118      -6.993
  N      -50.774       4.438      -7.259
  N      -52.847       2.177      -6.919
  C      -53.240       0.940      -6.692
  N      -52.182       0.102      -6.458
  O      -57.105      -5.286      -5.189
  O      -58.530      -3.164      -5.307
  H      -50.921      -2.999      -3.690
  H      -57.345      -5.148      -4.253
  H      -47.855       1.211      -6.517
  H      -54.271       0.608      -6.692
  H      -51.547      -1.830      -6.847
  H      -51.351      -0.895      -4.172
  H      -53.762      -0.889      -3.880
  H      -53.713      -3.569      -5.397
  H      -55.870      -2.914      -4.265
  H      -50.030       5.047      -7.555
  H      -51.750       4.698      -7.354
  H      -55.913      -1.464      -5.300
  P      -53.468      -2.019      -1.534
  C      -51.946      -0.568      -0.014
  O      -52.050      -1.345      -1.201
  O      -53.524      -3.269      -0.537
  O      -54.665      -1.143      -1.396
  H      -54.012      -3.025       0.274
  H      -50.951      -0.185       0.076
  H      -52.170      -1.181       0.834
  H      -52.639       0.246      -0.059

 6  7  8  9  10  11  12  13  14  15  25  28  32  33  34  35 0
 6-311+G(2d,p)
 ****
 36  39  40 0
 6-311+G(2d,p)
 ****
 1  2  3  4  5  16  17  18  19  20  21  22  23  24 0
 3-21G
 ****
 26  27  29  30  31  37  38  41  42  43  44  45  46  47  48 0
 3-21G
 ****


