%nproc=1
%NoSave
%Mem=1900MB
#P OB98/GEN NMR

erre ene a

0 1
  C      -20.308    -273.188     -36.898
  O      -19.893    -274.071     -35.876
  H      -19.527    -272.437     -37.048
  H      -21.229    -272.677     -36.604
  H      -20.463    -273.724     -37.837
  P      -20.790    -275.361     -35.560
  C      -20.328    -277.785     -34.807
  O      -19.782    -276.589     -35.347
  C      -19.777    -278.993     -35.563
  O      -20.129    -278.908     -36.962
  C      -18.258    -279.103     -35.524
  O      -17.812    -279.592     -34.275
  C      -18.010    -280.035     -36.699
  O      -18.233    -281.404     -36.326
  C      -19.076    -279.556     -37.710
  N      -18.529    -278.666     -38.733
  C      -17.931    -279.277     -39.831
  O      -17.821    -280.496     -39.950
  N      -17.431    -278.429     -40.784
  C      -17.370    -277.070     -40.695
  O      -16.829    -276.361     -41.537
  C      -17.994    -276.481     -39.502
  C      -18.537    -277.291     -38.592
  O      -21.908    -275.620     -36.511
  O      -21.335    -275.087     -34.078
  H      -17.689    -281.563     -35.531
  H      -22.273    -274.824     -34.122
  H      -16.981    -278.853     -41.581
  H      -17.979    -275.404     -39.402
  H      -18.997    -276.878     -37.702
  H      -19.533    -280.416     -38.215
  H      -16.988    -279.967     -37.072
  H      -17.805    -278.130     -35.743
  H      -20.245    -279.898     -35.152
  H      -21.417    -277.754     -34.913
  H      -20.074    -277.843     -33.743
  P      -16.264    -279.934     -34.058
  C      -14.793    -280.653     -32.078
  O      -15.995    -280.003     -32.480
  O      -15.308    -279.082     -34.826
  O      -16.146    -281.465     -34.511
  H      -15.523    -281.534     -35.258
  H      -14.720    -280.639     -31.011
  H      -13.953    -280.142     -32.500
  H      -14.803    -281.666     -32.422

 6  7  8  9  10  11  12  13  14  15  16  26  31  32  33  34  35 0
 6-311+G(2d,p)
 ****
 36  37 0
 6-311+G(2d,p)
 ****
 1  2  3  4  5  17  18  19  20  21  22  23  24  25 0
 3-21G
 ****
 27  28  29  30  38  39  40  41  42  43  44  45 0
 3-21G
 ****


