%nproc=1
%NoSave
%Mem=1900MB
#P OB98/GEN NMR

erre ene a

0 1
  C      982.152     -23.461     -67.555
  O      982.789     -23.291     -68.835
  P      984.168     -24.001     -69.216
  C      985.310     -22.416     -67.526
  O      985.241     -23.741     -68.045
  C      986.146     -22.353     -66.248
  O      987.505     -22.765     -66.499
  C      986.262     -20.980     -65.610
  O      985.064     -20.632     -64.934
  C      987.470     -21.168     -64.706
  O      987.106     -21.793     -63.468
  C      988.357     -22.100     -65.548
  N      989.441     -21.394     -66.220
  C      990.562     -21.081     -65.442
  O      990.578     -21.359     -64.237
  N      991.629     -20.454     -66.036
  C      991.542     -20.090     -67.279
  N      992.623     -19.471     -67.817
  C      990.345     -20.315     -68.108
  C      989.343     -20.964     -67.518
  O      984.671     -23.659     -70.585
  O      983.886     -25.575     -69.102
  H      987.941     -21.913     -62.963
  H      984.440     -26.045     -69.748
  H      990.310     -19.968     -69.129
  H      988.427     -21.179     -68.070
  H      988.790     -22.897     -64.923
  H      987.950     -20.217     -64.450
  H      986.488     -20.234     -66.382
  H      985.705     -23.074     -65.526
  H      993.441     -19.342     -67.220
  H      984.291     -22.078     -67.299
  H      992.674     -19.156     -68.771
  H      985.738     -21.755     -68.283
  P      983.973     -19.707     -65.665
  C      984.255     -17.510     -64.371
  O      984.491     -18.200     -65.587
  O      982.562     -19.921     -65.237
  O      984.158     -20.072     -67.216
  H      983.296     -19.979     -67.664
  H      984.978     -16.690     -64.289
  H      984.385     -18.175     -63.512
  H      983.244     -17.105     -64.381
  H      981.246     -22.893     -67.529
  H      982.808     -23.120     -66.782
  H      981.929     -24.496     -67.403

 3  4  5  6  7  8  9  10  11  12  13  23  27  28  29  30  32 0
 6-311+G(2d,p)
 ****
 34  35 0
 6-311+G(2d,p)
 ****
 1  2  14  15  16  17  18  19  20  21  22  24  25  26 0
 3-21G
 ****
 31  33  36  37  38  39  40  41  42  43  44  45  46 0
 3-21G
 ****


