%nproc=1
%NoSave
%Mem=1900MB
#P OB98/GEN NMR

erre ene a

0 1
  C      383.238     -40.497     134.314
  O      382.234     -40.409     133.324
  H      383.043     -41.374     134.938
  H      383.223     -39.604     134.946
  H      384.221     -40.605     133.847
  P      382.312     -39.144     132.340
  C      381.064     -37.643     134.045
  O      381.083     -38.190     132.733
  C      379.719     -36.974     134.323
  O      379.617     -36.592     135.713
  C      379.461     -35.713     133.502
  O      378.955     -36.038     132.219
  C      378.440     -34.999     134.374
  O      377.118     -35.551     134.182
  C      378.954     -35.302     135.787
  N      379.265     -31.007     138.427
  C      378.159     -31.704     137.988
  N      376.951     -31.165     138.265
  N      378.223     -32.828     137.320
  C      379.495     -33.219     137.062
  C      380.670     -32.616     137.441
  C      380.582     -31.403     138.227
  O      381.522     -30.785     138.716
  N      381.758     -33.328     137.001
  C      381.239     -34.340     136.333
  N      379.868     -34.314     136.334
  O      381.871     -39.744     130.920
  O      383.646     -38.482     132.252
  H      376.828     -35.372     133.270
  H      382.406     -39.324     130.223
  H      379.154     -30.164     138.964
  H      381.807     -35.117     135.840
  H      378.136     -35.400     136.509
  H      378.369     -33.939     134.122
  H      376.842     -30.189     138.507
  H      380.368     -35.100     133.425
  H      376.144     -31.639     137.879
  H      378.935     -37.721     134.138
  H      381.864     -36.901     134.132
  H      381.235     -38.443     134.772
  P      379.383     -35.121     130.979
  C      377.441     -33.415     131.211
  O      378.061     -34.410     130.409
  O      379.751     -36.193     129.849
  O      380.535     -34.210     131.247
  H      380.717     -36.247     129.742
  H      376.579     -33.035     130.704
  H      378.132     -32.617     131.387
  H      377.145     -33.844     132.146

 6  7  8  9  10  11  12  13  14  15  26  29  33  34 0
 6-311+G(2d,p)
 ****
 36  38  39  40  41 0
 6-311+G(2d,p)
 ****
 1  2  3  4  5  16  17  18  19  20  21  22  23  24  25 0
 3-21G
 ****
 27  28  30  31  32  35  37  42  43  44  45  46  47 0
 3-21G
 ****
 48  49 0
 3-21G
 ****


