%nproc=1
%NoSave
%Mem=1900MB
#P OB98/GEN NMR

erre ene a

0 1
  C       54.628     338.491    -639.087
  O       55.300     339.548    -638.441
  H       53.736     338.238    -638.505
  H       55.268     337.604    -639.136
  H       54.318     338.786    -640.092
  P       56.677     340.098    -639.055
  C       56.001     342.436    -638.232
  O       57.013     341.434    -638.221
  C       56.338     343.567    -637.257
  O       56.050     343.135    -635.899
  C       57.807     344.005    -637.305
  O       57.888     345.430    -637.353
  C       58.373     343.510    -635.976
  O       59.517     344.241    -635.548
  C       57.129     343.621    -635.081
  N       57.279     342.863    -633.846
  C       58.212     343.354    -632.927
  O       58.854     344.374    -633.183
  N       58.440     342.652    -631.775
  C       57.823     341.528    -631.572
  N       58.116     340.862    -630.425
  C       56.847     340.959    -632.525
  C       56.621     341.674    -633.628
  O       56.676     340.268    -640.540
  O       57.794     339.072    -638.545
  H       59.840     343.852    -634.708
  H       58.576     339.124    -639.141
  H       56.365     340.019    -632.315
  H       55.925     341.335    -634.389
  H       56.924     344.667    -634.827
  H       58.663     342.456    -636.080
  H       58.357     343.589    -638.148
  H       55.667     344.408    -637.463
  H       58.795     341.285    -629.803
  H       55.045     341.970    -637.966
  H       57.722     339.971    -630.172
  H       55.937     342.846    -639.245
  P       58.860     346.045    -638.475
  C       57.256     348.079    -638.695
  O       58.597     347.629    -638.545
  O       58.242     345.488    -639.846
  O       60.287     345.639    -638.314
  H       58.838     344.825    -640.236
  H       57.240     349.148    -638.726
  H       56.670     347.737    -637.867
  H       56.849     347.690    -639.605

 6  7  8  9  10  11  12  13  14  15  16  26  30  31  32  33  35 0
 6-311+G(2d,p)
 ****
 37  38 0
 6-311+G(2d,p)
 ****
 1  2  3  4  5  17  18  19  20  21  22  23  24  25 0
 3-21G
 ****
 27  28  29  34  36  39  40  41  42  43  44  45  46 0
 3-21G
 ****


