%nproc=1
%NoSave
%Mem=1900MB
#P OB98/GEN NMR

erre ene a

0 1
  C       76.282      54.811    -293.963
  O       77.252      55.837    -293.966
  H       75.853      54.734    -294.965
  H       75.479      55.039    -293.257
  H       76.743      53.853    -293.708
  P       77.950      56.229    -292.574
  C       80.071      57.053    -293.815
  O       78.986      57.396    -292.967
  C       80.248      58.113    -294.900
  O       79.342      57.883    -295.999
  C       79.961      59.543    -294.452
  O       80.981      60.094    -293.637
  C       79.865      60.227    -295.807
  O       81.186      60.412    -296.347
  C       79.076      59.173    -296.621
  N       77.640      59.436    -296.659
  C       77.221      60.527    -297.430
  O       78.041      61.214    -298.039
  N       75.885      60.838    -297.466
  C       75.040      60.136    -296.776
  N       73.733      60.517    -296.809
  C       75.435      58.969    -295.964
  C       76.734      58.681    -295.945
  O       78.528      55.100    -291.783
  O       76.827      57.050    -291.783
  H       81.095      60.971    -297.140
  H       77.206      57.305    -290.908
  H       74.692      58.422    -295.402
  H       77.104      57.848    -295.357
  H       79.452      59.115    -297.650
  H       79.391      61.212    -295.760
  H       78.986      59.608    -293.958
  H       81.267      58.011    -295.297
  H       73.507      61.345    -297.342
  H       79.866      56.072    -294.253
  H       73.076      60.207    -296.100
  H       80.998      56.996    -293.235
  P       80.572      61.261    -292.610
  C       82.111      60.240    -290.771
  O       81.769      61.377    -291.546
  O       79.384      60.598    -291.773
  O       80.181      62.564    -293.233
  H       78.513      60.826    -292.154
  H       82.922      60.485    -290.117
  H       82.405      59.441    -291.420
  H       81.265      59.936    -290.191

 6  7  8  9  10  11  12  13  14  15  16  26  30  31  32  33  35 0
 6-311+G(2d,p)
 ****
 37  38 0
 6-311+G(2d,p)
 ****
 1  2  3  4  5  17  18  19  20  21  22  23  24  25 0
 3-21G
 ****
 27  28  29  34  36  39  40  41  42  43  44  45  46 0
 3-21G
 ****


