%nproc=1
%NoSave
%Mem=1900MB
#P OB98/GEN NMR

erre ene a

0 1
  C       47.701     817.315    -188.121
  O       48.892     817.929    -188.574
  H       47.448     817.683    -187.116
  H       46.888     817.581    -188.803
  H       47.811     816.228    -188.103
  P       50.222     817.635    -187.720
  C       50.312     815.138    -188.416
  O       50.188     816.074    -187.352
  C       51.421     814.135    -188.116
  O       51.213     813.545    -186.816
  C       51.509     812.964    -189.089
  O       52.186     813.331    -190.282
  C       52.316     811.971    -188.266
  O       53.714     812.330    -188.315
  C       51.769     812.202    -186.851
  N       50.726     807.969    -184.164
  C       51.851     808.723    -184.268
  N       52.044     809.844    -184.989
  C       50.918     810.197    -185.631
  C       49.693     809.545    -185.598
  C       49.619     808.372    -184.821
  N       48.482     807.584    -184.775
  N       48.770     810.204    -186.400
  C       49.442     811.213    -186.918
  N       50.735     811.254    -186.479
  O       49.904     818.365    -186.314
  O       51.490     818.142    -188.323
  H       53.773     813.279    -188.088
  H       50.317     819.245    -186.314
  H       52.712     808.354    -183.703
  H       49.029     811.927    -187.618
  H       52.557     812.154    -186.081
  H       52.234     810.941    -188.631
  H       50.517     812.535    -189.292
  H       52.366     814.688    -188.078
  H       50.549     815.671    -189.347
  H       48.678     806.596    -184.604
  H       47.784     807.792    -185.488
  H       49.351     814.625    -188.542
  P       51.804     812.539    -191.624
  C       49.581     813.769    -192.104
  O       50.196     812.547    -191.727
  O       52.155     811.010    -191.251
  O       52.533     812.972    -192.857
  H       52.787     810.652    -191.898
  H       48.519     813.639    -192.135
  H       49.933     814.062    -193.071
  H       49.827     814.527    -191.390

 6  7  8  9  10  11  12  13  14  15  25  28  32  33  34  35 0
 6-311+G(2d,p)
 ****
 36  39  40 0
 6-311+G(2d,p)
 ****
 1  2  3  4  5  16  17  18  19  20  21  22  23  24 0
 3-21G
 ****
 26  27  29  30  31  37  38  41  42  43  44  45  46  47  48 0
 3-21G
 ****


