%nproc=1
%NoSave
%Mem=1900MB
#P OB98/GEN NMR

erre ene a

0 1
  C      700.906    -240.546     445.848
  O      699.649    -240.930     446.402
  P      699.050    -240.018     447.585
  C      696.964    -239.263     446.235
  O      698.189    -238.880     446.859
  C      695.769    -238.776     447.049
  O      695.795    -237.335     447.163
  C      694.418    -239.128     446.466
  O      694.012    -240.453     446.766
  C      693.516    -238.121     447.175
  O      693.226    -238.602     448.507
  C      694.414    -236.877     447.235
  N      692.900    -232.129     446.083
  C      692.973    -232.794     447.258
  N      693.363    -234.061     447.475
  C      693.695    -234.670     446.328
  C      693.626    -234.126     445.041
  C      693.216    -232.792     444.943
  N      693.175    -232.111     443.741
  N      694.027    -235.063     444.114
  C      694.341    -236.130     444.804
  N      694.153    -235.946     446.148
  O      700.345    -239.224     448.111
  O      698.367    -240.774     448.674
  H      692.628    -239.349     448.413
  H      700.197    -238.929     449.032
  H      692.672    -232.218     448.138
  H      694.699    -237.066     444.382
  H      694.301    -236.332     448.171
  H      692.557    -237.982     446.673
  H      694.384    -238.929     445.375
  H      695.862    -239.188     448.065
  H      696.927    -240.347     446.159
  H      693.044    -231.102     443.777
  H      693.602    -232.544     442.933
  H      696.926    -238.840     445.225
  P      693.750    -241.444     445.518
  C      696.033    -242.671     445.494
  O      695.196    -241.717     444.889
  O      693.029    -240.490     444.455
  O      692.935    -242.647     445.858
  H      692.475    -241.021     443.852
  H      696.828    -242.947     444.783
  H      695.493    -243.567     445.777
  H      696.515    -242.243     446.380
  H      701.182    -241.235     445.077
  H      701.651    -240.553     446.616
  H      700.828    -239.562     445.435

 3  4  5  6  7  8  9  10  11  12  22  25  29  30  31  32 0
 6-311+G(2d,p)
 ****
 33  36  37 0
 6-311+G(2d,p)
 ****
 1  2  13  14  15  16  17  18  19  20  21  23  24  26 0
 3-21G
 ****
 27  28  34  35  38  39  40  41  42  43  44  45  46  47  48 0
 3-21G
 ****


