%nproc=1
%NoSave
%Mem=1900MB
#P OB98/GEN NMR

erre ene a

0 1
  C      -40.765    -960.848    -176.672
  O      -41.690    -961.908    -176.571
  H      -39.824    -961.245    -177.056
  H      -40.582    -960.411    -175.689
  H      -41.129    -960.081    -177.359
  P      -43.164    -961.587    -176.027
  C      -44.460    -962.720    -177.963
  O      -44.067    -961.500    -177.354
  C      -44.853    -962.482    -179.416
  O      -43.706    -962.132    -180.222
  C      -45.463    -963.689    -180.125
  O      -46.788    -963.984    -179.720
  C      -45.383    -963.216    -181.565
  O      -46.422    -962.251    -181.810
  C      -43.986    -962.557    -181.585
  N      -42.942    -963.469    -182.060
  C      -42.667    -963.443    -183.436
  O      -43.292    -962.695    -184.188
  N      -41.715    -964.293    -183.932
  C      -41.099    -965.114    -183.141
  N      -40.169    -965.943    -183.686
  C      -41.373    -965.189    -181.687
  C      -42.294    -964.346    -181.226
  O      -43.283    -960.426    -175.093
  O      -43.666    -962.971    -175.388
  H      -47.258    -962.651    -181.512
  H      -44.573    -962.822    -175.024
  H      -40.858    -965.912    -181.075
  H      -42.549    -964.347    -180.170
  H      -43.985    -961.660    -182.215
  H      -45.513    -964.021    -182.291
  H      -44.816    -964.573    -180.013
  H      -45.535    -961.622    -179.437
  H      -40.007    -965.871    -184.685
  H      -45.299    -963.132    -177.392
  H      -39.702    -966.667    -183.158
  H      -43.631    -963.435    -177.939
  P      -46.991    -965.245    -178.740
  C      -48.036    -964.021    -176.689
  O      -46.907    -964.665    -177.248
  O      -45.628    -966.063    -178.915
  O      -48.203    -966.074    -179.012
  H      -45.753    -966.805    -179.544
  H      -47.807    -963.698    -175.695
  H      -48.859    -964.704    -176.661
  H      -48.296    -963.173    -177.288

 6  7  8  9  10  11  12  13  14  15  16  26  30  31  32  33  35 0
 6-311+G(2d,p)
 ****
 37  38 0
 6-311+G(2d,p)
 ****
 1  2  3  4  5  17  18  19  20  21  22  23  24  25 0
 3-21G
 ****
 27  28  29  34  36  39  40  41  42  43  44  45  46 0
 3-21G
 ****


