%nproc=1
%NoSave
%Mem=1900MB
#P OB98/GEN NMR

erre ene a

0 1
  C       59.798    -215.551    -127.867
  O       60.364    -214.386    -127.290
  P       61.577    -214.579    -126.255
  C       60.942    -213.771    -123.866
  O       60.909    -214.825    -124.817
  C       59.592    -213.062    -123.819
  O       58.539    -213.991    -123.486
  C       59.500    -211.960    -122.768
  O       60.084    -210.746    -123.210
  C       57.995    -211.810    -122.633
  O       57.481    -211.009    -123.715
  C       57.512    -213.261    -122.767
  N       54.397    -213.476    -118.788
  C       54.225    -212.857    -120.009
  N       53.089    -212.147    -120.171
  N       55.090    -212.930    -120.990
  C       56.186    -213.668    -120.681
  C       56.466    -214.331    -119.508
  C       55.508    -214.230    -118.428
  O       55.625    -214.712    -117.306
  N       57.669    -214.980    -119.574
  C       58.119    -214.716    -120.784
  N       57.275    -213.888    -121.478
  O       62.189    -213.105    -126.127
  O       62.599    -215.578    -126.674
  H       57.575    -211.544    -124.527
  H       63.085    -213.149    -125.743
  H       53.703    -213.385    -118.062
  H       59.052    -215.085    -121.193
  H       56.591    -213.332    -123.354
  H       57.698    -211.315    -121.703
  H       52.414    -212.000    -119.434
  H       59.921    -212.288    -121.810
  H       52.966    -211.632    -121.034
  H       59.383    -212.658    -124.819
  H       61.720    -213.056    -124.144
  H       61.189    -214.182    -122.881
  P       60.799    -209.841    -122.093
  C       59.424    -207.707    -121.537
  O       59.610    -209.093    -121.324
  O       61.490    -208.683    -122.954
  O       61.779    -210.575    -121.239
  H       62.264    -208.323    -122.483
  H       58.437    -207.423    -121.162
  H       59.477    -207.461    -122.601
  H       60.185    -207.142    -120.989
  H       59.007    -215.272    -128.531
  H       59.409    -216.180    -127.093
  H       60.551    -216.081    -128.412

 3  4  5  6  7  8  9  10  11  12  23  26  30  31 0
 6-311+G(2d,p)
 ****
 33  35  36  37  38 0
 6-311+G(2d,p)
 ****
 1  2  13  14  15  16  17  18  19  20  21  22  24  25 0
 3-21G
 ****
 27  28  29  32  34  39  40  41  42  43  44  45  46  47  48  49 0
 3-21G
 ****


