%nproc=1
%NoSave
%Mem=1900MB
#P OB98/GEN NMR

erre ene a

0 1
  C      254.874     214.622    -147.648
  O      255.497     213.435    -148.094
  H      253.971     214.807    -148.235
  H      254.589     214.496    -146.599
  H      255.553     215.474    -147.728
  P      256.262     213.496    -149.504
  C      258.312     215.010    -149.011
  O      257.823     213.687    -149.162
  C      259.831     215.001    -148.841
  O      260.338     216.332    -149.143
  C      260.308     214.625    -147.429
  O      261.484     213.818    -147.547
  C      260.688     215.964    -146.825
  O      261.656     215.843    -145.788
  C      261.194     216.715    -148.051
  N      263.784     220.612    -146.062
  C      264.154     219.358    -146.392
  N      263.409     218.394    -146.973
  C      262.185     218.856    -147.272
  C      261.664     220.109    -147.005
  C      262.522     221.014    -146.350
  N      262.133     222.271    -145.948
  N      260.348     220.183    -147.416
  C      260.072     218.987    -147.897
  N      261.150     218.150    -147.829
  O      255.825     214.930    -150.070
  O      255.943     212.396    -150.458
  H      261.329     215.206    -145.123
  H      254.990     214.844    -150.566
  H      265.179     219.089    -146.149
  H      259.110     218.667    -148.273
  H      262.226     216.452    -148.313
  H      259.794     216.445    -146.407
  H      259.554     214.096    -146.835
  H      260.259     214.319    -149.588
  H      257.860     215.460    -148.121
  H      262.781     222.804    -145.390
  H      261.165     222.540    -146.055
  H      258.031     215.603    -149.888
  P      261.301     212.229    -147.443
  C      260.930     211.965    -150.005
  O      261.676     211.577    -148.857
  O      259.712     212.047    -147.359
  O      261.986     211.618    -146.264
  H      259.489     211.276    -146.809
  H      261.300     211.445    -150.864
  H      261.031     213.019    -150.156
  H      259.898     211.723    -149.859

 6  7  8  9  10  11  12  13  14  15  25  28  32  33  34  35 0
 6-311+G(2d,p)
 ****
 36  39  40 0
 6-311+G(2d,p)
 ****
 1  2  3  4  5  16  17  18  19  20  21  22  23  24 0
 3-21G
 ****
 26  27  29  30  31  37  38  41  42  43  44  45  46  47 0
 3-21G
 ****
 48 0
 3-21G
 ****


