%nproc=1
%NoSave
%Mem=1900MB
#P OB98/GEN NMR

erre ene a

0 1
  C     -402.611    -416.334     -94.015
  O     -403.076    -417.429     -94.783
  H     -402.266    -415.548     -94.696
  H     -401.776    -416.637     -93.377
  H     -403.421    -415.931     -93.400
  P     -403.566    -418.746     -94.017
  C     -401.484    -419.968     -94.954
  O     -402.262    -419.656     -93.802
  C     -400.383    -420.973     -94.602
  O     -399.581    -421.259     -95.763
  C     -399.414    -420.480     -93.533
  O     -400.014    -420.544     -92.251
  C     -398.252    -421.438     -93.753
  O     -398.520    -422.723     -93.167
  C     -398.232    -421.538     -95.301
  N     -397.269    -420.640     -95.930
  C     -396.536    -421.174     -96.997
  O     -396.704    -422.348     -97.340
  N     -395.615    -420.367     -97.625
  C     -395.467    -419.137     -97.258
  N     -394.542    -418.395     -97.923
  C     -396.251    -418.521     -96.168
  C     -397.114    -419.324     -95.546
  O     -404.732    -419.469     -94.622
  O     -403.895    -418.234     -92.536
  H     -397.803    -423.314     -93.477
  H     -404.846    -418.011     -92.453
  H     -396.106    -417.481     -95.898
  H     -397.727    -418.952     -94.729
  H     -397.997    -422.565     -95.618
  H     -397.318    -421.069     -93.312
  H     -399.074    -419.468     -93.760
  H     -400.869    -421.909     -94.296
  H     -394.043    -418.852     -98.681
  H     -401.040    -419.030     -95.307
  H     -394.463    -417.388     -97.839
  H     -402.120    -420.371     -95.751
  P     -400.371    -419.213     -91.428
  C     -398.826    -419.703     -89.427
  O     -399.062    -418.872     -90.558
  O     -401.642    -419.265     -90.651
  O     -400.347    -418.062     -92.541
  H     -401.178    -418.086     -93.083
  H     -397.934    -419.383     -88.930
  H     -398.712    -420.717     -89.747
  H     -399.655    -419.633     -88.754

 6  7  8  9  10  11  12  13  14  15  16  26  30  31  32  33  35 0
 6-311+G(2d,p)
 ****
 37  38 0
 6-311+G(2d,p)
 ****
 1  2  3  4  5  17  18  19  20  21  22  23  24  25 0
 3-21G
 ****
 27  28  29  34  36  39  40  41  42  43  44  45  46 0
 3-21G
 ****


