%nproc=1
%NoSave
%Mem=1900MB
#P OB98/GEN NMR

erre ene a

0 1
  C      -71.108    -754.184     357.315
  O      -70.447    -752.939     357.390
  H      -70.692    -754.848     358.079
  H      -70.947    -754.641     356.333
  H      -72.182    -754.073     357.501
  P      -70.993    -751.722     356.501
  C      -72.845    -750.405     357.734
  O      -71.448    -750.573     357.523
  C      -73.126    -749.912     359.161
  O      -72.936    -751.033     360.083
  C      -72.187    -748.781     359.630
  O      -72.934    -747.985     360.571
  C      -71.106    -749.582     360.336
  O      -70.246    -748.771     361.102
  C      -71.978    -750.603     361.070
  N      -71.268    -751.743     361.632
  C      -70.941    -751.709     362.985
  O      -71.214    -750.773     363.748
  N      -70.267    -752.797     363.460
  C      -69.906    -753.903     362.747
  O      -69.326    -754.861     363.240
  C      -70.264    -753.877     361.320
  C      -70.920    -752.822     360.838
  O      -72.002    -752.075     355.465
  O      -69.665    -751.106     355.850
  H      -69.586    -751.402     354.921
  H      -70.302    -747.847     360.770
  H      -70.027    -752.791     364.447
  H      -69.984    -754.735     360.724
  H      -71.216    -752.782     359.794
  H      -72.538    -750.109     361.871
  H      -70.467    -750.068     359.594
  H      -71.832    -748.149     358.817
  H      -74.172    -749.618     359.232
  H      -73.334    -751.372     357.572
  H      -73.230    -749.682     357.006
  P      -72.926    -746.377     360.569
  C      -74.354    -746.207     358.416
  O      -74.236    -745.867     359.801
  O      -71.655    -745.777     360.056
  O      -73.185    -745.958     362.092
  H      -72.804    -745.077     362.253
  H      -75.268    -745.808     358.027
  H      -74.356    -747.272     358.309
  H      -73.527    -745.795     357.876

 6  7  8  9  10  11  12  13  14  15  16  27  31  32  33  34  35 0
 6-311+G(2d,p)
 ****
 36  37 0
 6-311+G(2d,p)
 ****
 1  2  3  4  5  17  18  19  20  21  22  23  24  25 0
 3-21G
 ****
 26  28  29  30  38  39  40  41  42  43  44  45 0
 3-21G
 ****


