%nproc=1
%NoSave
%Mem=1900MB
#P OB98/GEN NMR

erre ene a

0 1
  C      -54.172     121.014      15.272
  O      -54.578     121.784      16.406
  P      -56.133     122.109      16.615
  C      -57.017     119.739      17.118
  O      -56.756     121.036      17.634
  C      -57.656     118.838      18.189
  O      -56.991     119.045      19.465
  C      -59.153     119.110      18.385
  O      -59.950     117.927      18.325
  C      -59.206     119.880      19.693
  O      -60.465     119.788      20.341
  C      -57.994     119.331      20.458
  N      -57.516     120.271      21.475
  C      -57.388     119.780      22.768
  O      -57.725     118.641      23.092
  N      -56.914     120.662      23.703
  C      -56.639     121.980      23.488
  O      -56.261     122.741      24.370
  C      -56.855     122.461      22.114
  C      -57.276     121.598      21.188
  O      -56.923     122.332      15.370
  O      -56.099     123.445      17.509
  H      -60.377     120.163      21.245
  H      -56.820     124.029      17.203
  H      -56.799     120.314      24.643
  H      -56.668     123.506      21.913
  H      -57.455     121.928      20.173
  H      -58.245     118.397      20.971
  H      -59.031     120.942      19.476
  H      -59.553     119.738      17.581
  H      -57.492     117.800      17.879
  H      -56.082     119.285      16.787
  H      -57.649     119.822      16.228
  P      -61.290     117.780      17.463
  C      -60.055     117.268      15.243
  O      -60.982     116.827      16.215
  O      -61.989     119.053      17.125
  O      -62.222     116.871      18.400
  H      -63.139     117.199      18.355
  H      -60.230     116.715      14.316
  H      -59.037     117.059      15.589
  H      -60.164     118.337      15.044
  H      -53.109     120.891      15.286
  H      -54.461     121.521      14.375
  H      -54.642     120.053      15.306

 3  4  5  6  7  8  9  10  11  12  13  23  28  29  30  31  32 0
 6-311+G(2d,p)
 ****
 33  34 0
 6-311+G(2d,p)
 ****
 1  2  14  15  16  17  18  19  20  21  22  24  25  26  27 0
 3-21G
 ****
 35  36  37  38  39  40  41  42  43  44  45 0
 3-21G
 ****


