%nproc=1
%NoSave
%Mem=1900MB
#P OB98/GEN NMR

erre ene a

0 1
  C      -51.592     -65.057      47.098
  O      -50.591     -65.884      47.652
  H      -51.120     -64.343      46.420
  H      -52.096     -64.503      47.893
  H      -52.322     -65.643      46.534
  P      -51.029     -67.201      48.452
  C      -50.653     -66.253      50.820
  O      -51.604     -66.704      49.866
  C      -51.352     -65.674      52.054
  O      -52.071     -64.468      51.664
  C      -52.370     -66.627      52.698
  O      -52.391     -66.343      54.103
  C      -53.665     -66.178      52.051
  O      -54.789     -66.634      52.771
  C      -53.455     -64.662      52.013
  N      -54.358     -63.996      51.076
  C      -55.356     -63.205      51.630
  O      -55.519     -63.077      52.845
  N      -56.200     -62.593      50.747
  C      -56.180     -62.745      49.391
  O      -56.983     -62.197      48.647
  C      -55.130     -63.629      48.862
  C      -54.278     -64.203      49.715
  O      -50.000     -68.277      48.541
  O      -52.350     -67.700      47.697
  H      -54.750     -67.608      52.878
  H      -52.426     -68.671      47.762
  H      -56.923     -62.007      51.133
  H      -55.093     -63.778      47.792
  H      -53.493     -64.860      49.355
  H      -53.617     -64.223      53.007
  H      -53.746     -66.577      51.035
  H      -52.144     -67.680      52.523
  H      -50.588     -65.366      52.777
  H      -50.039     -65.481      50.345
  H      -50.009     -67.086      51.116
  P      -51.704     -67.315      55.180
  C      -53.633     -69.021      55.225
  O      -52.252     -68.806      54.951
  O      -51.805     -66.836      56.591
  O      -50.172     -67.409      54.723
  H      -49.608     -67.584      55.498
  H      -53.879     -70.045      55.037
  H      -54.224     -68.391      54.594
  H      -53.834     -68.789      56.250

 6  7  8  9  10  11  12  13  14  15  16  26  31  32  33  34  35 0
 6-311+G(2d,p)
 ****
 36  37 0
 6-311+G(2d,p)
 ****
 1  2  3  4  5  17  18  19  20  21  22  23  24  25 0
 3-21G
 ****
 27  28  29  30  38  39  40  41  42  43  44  45 0
 3-21G
 ****


