%nproc=1
%NoSave
%Mem=1900MB
#P OB98/GEN NMR

erre ene a

0 1
  C       11.159      20.360     -51.429
  O       10.315      21.497     -51.397
  P       10.457      22.632     -52.517
  C       12.143      23.870     -50.968
  O       11.853      23.374     -52.257
  C       13.571      24.428     -50.896
  O       14.474      23.395     -51.361
  C       13.830      25.640     -51.783
  O       15.014      26.295     -51.322
  C       14.097      24.993     -53.123
  O       14.801      25.858     -54.010
  C       14.848      23.696     -52.727
  N       14.494      22.573     -53.614
  C       14.936      21.309     -53.234
  O       15.526      21.096     -52.176
  N       14.752      20.311     -54.152
  C       14.225      20.474     -55.399
  O       14.348      19.659     -56.305
  C       13.564      21.766     -55.645
  C       13.749      22.753     -54.764
  O        9.362      23.710     -52.069
  O       10.239      22.166     -53.915
  H       15.141      25.297     -54.746
  H        8.534      23.575     -52.567
  H       15.201      19.428     -53.937
  H       13.004      21.886     -56.562
  H       13.318      23.734     -54.945
  H       15.935      23.833     -52.772
  H       13.140      24.743     -53.597
  H       12.998      26.349     -51.830
  H       13.821      24.651     -49.852
  H       12.003      23.071     -50.234
  H       11.437      24.664     -50.699
  P       15.096      27.890     -51.471
  C       16.417      27.691     -53.664
  O       15.251      28.188     -53.039
  O       16.078      28.580     -50.585
  O       13.592      28.358     -51.170
  H       13.582      29.305     -50.941
  H       16.193      27.484     -54.714
  H       16.766      26.771     -53.188
  H       17.204      28.448     -53.611
  H       10.921      19.716     -50.609
  H       12.180      20.671     -51.353
  H       11.014      19.834     -52.349

 3  4  5  6  7  8  9  10  11  12  13  23  28  29  30  31  32 0
 6-311+G(2d,p)
 ****
 33  34 0
 6-311+G(2d,p)
 ****
 1  2  14  15  16  17  18  19  20  21  22  24  25  26  27 0
 3-21G
 ****
 35  36  37  38  39  40  41  42  43  44  45 0
 3-21G
 ****


