%nproc=1
%NoSave
%Mem=1900MB
#P OB98/GEN NMR

erre ene a

0 1
  C      264.481      60.877    -143.492
  O      263.801      60.088    -144.449
  H      264.082      61.895    -143.531
  H      265.552      60.912    -143.704
  H      264.313      60.475    -142.489
  P      264.377      58.624    -144.766
  C      266.068      59.950    -146.199
  O      265.249      58.786    -146.108
  C      266.880      59.947    -147.497
  O      267.974      59.011    -147.396
  C      266.086      59.500    -148.715
  O      265.093      60.417    -149.124
  C      267.183      59.095    -149.689
  O      267.692      60.183    -150.453
  C      268.280      58.568    -148.733
  N      268.420      57.119    -148.807
  C      269.677      56.649    -149.173
  O      270.625      57.386    -149.444
  N      269.804      55.291    -149.259
  C      268.804      54.382    -149.070
  O      268.973      53.175    -149.204
  C      267.491      54.939    -148.712
  C      267.360      56.263    -148.598
  O      263.360      57.524    -144.835
  O      265.489      58.400    -143.638
  H      268.033      60.844    -149.819
  H      265.729      57.446    -143.559
  H      270.710      54.931    -149.512
  H      266.674      54.247    -148.557
  H      266.398      56.698    -148.336
  H      269.251      59.012    -148.991
  H      266.829      58.343    -150.399
  H      265.553      58.578    -148.453
  H      267.301      60.948    -147.644
  H      266.754      59.941    -145.346
  H      265.443      60.846    -146.142
  P      263.537      60.058    -149.175
  C      263.677      59.170    -151.612
  O      263.066      60.087    -150.712
  O      262.664      60.701    -148.146
  O      263.566      58.475    -148.860
  H      262.762      58.263    -148.349
  H      263.267      59.304    -152.591
  H      263.492      58.169    -151.282
  H      264.732      59.347    -151.640

 6  7  8  9  10  11  12  13  14  15  16  26  31  32  33  34  35 0
 6-311+G(2d,p)
 ****
 36  37 0
 6-311+G(2d,p)
 ****
 1  2  3  4  5  17  18  19  20  21  22  23  24  25 0
 3-21G
 ****
 27  28  29  30  38  39  40  41  42  43  44  45 0
 3-21G
 ****


