%nproc=1
%NoSave
%Mem=1900MB
#P OB98/GEN NMR

erre ene a

0 1
  C      606.280    -237.332    -419.770
  O      605.917    -238.227    -420.803
  P      606.853    -239.486    -421.182
  C      607.182    -238.743    -423.652
  O      607.791    -238.951    -422.378
  C      608.256    -238.656    -424.717
  O      609.080    -237.493    -424.494
  C      609.209    -239.848    -424.784
  O      608.601    -240.974    -425.377
  C      610.381    -239.237    -425.546
  O      610.107    -239.218    -426.949
  C      610.409    -237.797    -425.000
  N      611.425    -237.607    -423.962
  C      612.712    -238.094    -424.247
  O      612.953    -238.654    -425.313
  N      613.714    -237.907    -423.309
  C      613.437    -237.316    -422.193
  N      614.478    -237.101    -421.337
  C      612.084    -236.835    -421.822
  C      611.137    -237.007    -422.743
  O      606.116    -240.738    -421.487
  O      607.874    -239.603    -419.962
  H      609.923    -240.140    -427.217
  H      607.546    -240.170    -419.220
  H      611.923    -236.352    -420.878
  H      610.141    -236.661    -422.569
  H      610.596    -237.093    -425.807
  H      611.318    -239.783    -425.380
  H      609.524    -240.116    -423.767
  H      607.763    -238.533    -425.699
  H      615.409    -237.294    -421.700
  H      606.619    -237.797    -423.618
  H      614.419    -236.409    -420.596
  H      606.477    -239.571    -423.844
  P      609.127    -242.422    -424.973
  C      610.077    -242.726    -427.372
  O      610.333    -242.753    -425.987
  O      607.947    -243.389    -425.432
  O      609.445    -242.577    -423.517
  H      607.405    -243.650    -424.671
  H      611.024    -242.745    -427.908
  H      609.520    -241.821    -427.645
  H      609.504    -243.632    -427.644
  H      605.532    -236.572    -419.677
  H      607.221    -236.880    -420.004
  H      606.362    -237.867    -418.847

 3  4  5  6  7  8  9  10  11  12  13  23  27  28  29  30  32 0
 6-311+G(2d,p)
 ****
 34  35 0
 6-311+G(2d,p)
 ****
 1  2  14  15  16  17  18  19  20  21  22  24  25  26 0
 3-21G
 ****
 31  33  36  37  38  39  40  41  42  43  44  45  46 0
 3-21G
 ****


