%nproc=1
%NoSave
%Mem=1900MB
#P OB98/GEN NMR

erre ene a

0 1
  C     -465.443     661.538     161.993
  O     -465.460     660.946     160.705
  H     -464.762     660.968     162.627
  H     -466.443     661.521     162.443
  H     -465.088     662.566     161.926
  P     -466.596     661.422     159.672
  C     -464.920     662.814     158.283
  O     -466.085     662.841     159.101
  C     -465.253     663.166     156.832
  O     -465.675     664.543     156.728
  C     -464.070     663.046     155.878
  O     -463.607     661.731     155.681
  C     -464.556     663.857     154.685
  O     -465.401     663.100     153.821
  C     -465.365     664.986     155.384
  N     -464.659     666.257     155.380
  C     -464.584     666.909     154.154
  O     -465.060     666.453     153.108
  N     -463.919     668.103     154.158
  C     -463.295     668.667     155.217
  O     -462.691     669.738     155.156
  C     -463.375     667.917     156.481
  C     -464.045     666.759     156.512
  O     -468.001     661.453     160.209
  O     -466.409     660.445     158.420
  H     -465.714     663.703     153.130
  H     -467.197     660.473     157.824
  H     -463.869     668.596     153.279
  H     -462.876     668.329     157.359
  H     -464.117     666.187     157.424
  H     -466.326     665.121     154.877
  H     -463.719     664.222     154.081
  H     -463.229     663.598     156.311
  H     -466.087     662.534     156.513
  H     -464.506     661.795     158.325
  H     -464.179     663.516     158.685
  P     -462.101     661.377     155.301
  C     -461.051     661.797     157.665
  O     -461.120     662.173     156.292
  O     -461.757     661.347     153.843
  O     -461.978     659.862     155.860
  H     -461.380     659.380     155.255
  H     -460.353     662.429     158.173
  H     -460.731     660.779     157.740
  H     -462.017     661.901     158.112

 6  7  8  9  10  11  12  13  14  15  16  26  31  32  33  34  35 0
 6-311+G(2d,p)
 ****
 36  37 0
 6-311+G(2d,p)
 ****
 1  2  3  4  5  17  18  19  20  21  22  23  24  25 0
 3-21G
 ****
 27  28  29  30  38  39  40  41  42  43  44  45 0
 3-21G
 ****


