%nproc=1
%NoSave
%Mem=1900MB
#P OB98/GEN NMR

erre ene a

0 1
  C     -249.215    -109.642    -683.163
  O     -248.665    -110.573    -682.233
  P     -249.638    -111.633    -681.519
  C     -248.029    -112.198    -679.596
  O     -248.751    -112.701    -680.714
  C     -247.087    -113.246    -678.983
  O     -247.847    -114.238    -678.231
  C     -246.241    -114.014    -680.006
  O     -244.970    -114.261    -679.392
  C     -247.019    -115.307    -680.183
  O     -246.230    -116.342    -680.752
  C     -247.482    -115.539    -678.738
  N     -248.595    -116.476    -678.659
  C     -248.308    -117.823    -678.911
  O     -247.183    -118.159    -679.291
  N     -249.317    -118.742    -678.765
  C     -250.528    -118.335    -678.524
  N     -251.493    -119.287    -678.364
  C     -250.897    -116.910    -678.434
  C     -249.887    -116.050    -678.480
  O     -250.697    -112.226    -682.397
  O     -250.298    -110.766    -680.335
  H     -246.222    -116.240    -681.731
  H     -251.225    -111.062    -680.204
  H     -251.932    -116.617    -678.322
  H     -250.050    -114.985    -678.415
  H     -246.658    -115.914    -678.120
  H     -247.879    -115.132    -680.846
  H     -246.085    -113.464    -680.942
  H     -246.427    -112.736    -678.267
  H     -251.239    -120.258    -678.457
  H     -248.737    -111.862    -678.832
  H     -252.451    -119.047    -678.133
  H     -247.470    -111.301    -679.901
  P     -243.669    -113.513    -679.959
  C     -242.512    -115.507    -681.165
  O     -242.498    -114.593    -680.089
  O     -243.200    -112.654    -678.681
  O     -243.890    -112.605    -681.125
  H     -242.684    -111.887    -678.992
  H     -241.512    -115.967    -681.251
  H     -242.743    -115.003    -682.103
  H     -243.246    -116.295    -680.978
  H     -248.436    -109.014    -683.542
  H     -249.951    -109.040    -682.672
  H     -249.671    -110.173    -683.972

 3  4  5  6  7  8  9  10  11  12  13  23  27  28  29  30  32 0
 6-311+G(2d,p)
 ****
 34  35 0
 6-311+G(2d,p)
 ****
 1  2  14  15  16  17  18  19  20  21  22  24  25  26 0
 3-21G
 ****
 31  33  36  37  38  39  40  41  42  43  44  45  46 0
 3-21G
 ****


