%nproc=1
%NoSave
%Mem=1900MB
#P OB98/GEN NMR

erre ene a

0 1
  C     -114.719      83.932      56.937
  O     -115.915      84.139      57.660
  H     -114.877      83.113      56.230
  H     -113.907      83.655      57.614
  H     -114.448      84.829      56.376
  P     -115.945      85.295      58.773
  C     -114.693      85.628      61.017
  O     -114.891      84.799      59.882
  C     -114.105      84.817      62.167
  O     -115.043      83.831      62.648
  C     -112.857      84.015      61.813
  O     -111.692      84.805      61.659
  C     -112.780      83.103      63.024
  O     -112.280      83.839      64.153
  C     -114.271      82.733      63.210
  N     -114.623      81.471      62.559
  C     -114.391      80.302      63.292
  O     -113.906      80.353      64.421
  N     -114.685      79.090      62.714
  C     -115.145      79.047      61.502
  N     -115.411      77.819      60.977
  C     -115.385      80.254      60.687
  C     -115.109      81.418      61.270
  O     -117.296      85.668      59.293
  O     -115.158      86.517      58.105
  H     -112.287      83.230      64.915
  H     -115.157      87.265      58.751
  H     -115.742      80.163      59.672
  H     -115.252      82.349      60.732
  H     -114.526      82.666      64.274
  H     -112.119      82.246      62.878
  H     -113.029      83.396      60.923
  H     -113.914      85.511      62.996
  H     -115.237      77.011      61.558
  H     -115.659      86.061      61.296
  H     -115.700      77.689      60.016
  H     -113.998      86.437      60.774
  P     -110.643      84.345      60.530
  C     -109.056      82.292      60.238
  O     -110.058      82.933      61.009
  O     -109.427      85.362      60.730
  O     -111.173      84.348      59.131
  H     -109.475      86.090      60.082
  H     -108.785      81.367      60.703
  H     -108.195      82.925      60.175
  H     -109.431      82.100      59.254

 6  7  8  9  10  11  12  13  14  15  16  26  30  31  32  33  35 0
 6-311+G(2d,p)
 ****
 37  38 0
 6-311+G(2d,p)
 ****
 1  2  3  4  5  17  18  19  20  21  22  23  24  25 0
 3-21G
 ****
 27  28  29  34  36  39  40  41  42  43  44  45  46 0
 3-21G
 ****


