%nproc=1
%NoSave
%Mem=1900MB
#P OB98/GEN NMR

erre ene a

0 1
  C       40.094     545.530      12.052
  O       40.120     544.344      11.274
  P       38.789     543.443      11.248
  C       40.185     541.553      12.352
  O       39.273     541.917      11.323
  C       40.809     540.180      12.086
  O       39.769     539.173      12.143
  C       41.510     540.067      10.730
  O       42.667     539.245      10.906
  C       40.503     539.320       9.874
  O       41.139     538.638       8.794
  C       39.839     538.413      10.917
  N       38.516     537.959      10.492
  C       38.470     536.863       9.626
  O       39.513     536.374       9.192
  N       37.245     536.380       9.231
  C       36.167     537.008       9.580
  N       34.980     536.491       9.162
  C       36.180     538.243      10.392
  C       37.373     538.643      10.826
  O       38.288     543.600       9.735
  O       37.746     543.847      12.235
  H       41.710     537.932       9.171
  H       37.316     543.553       9.685
  H       35.255     538.749      10.626
  H       37.475     539.528      11.448
  H       40.461     537.525      11.113
  H       39.774     540.026       9.456
  H       41.805     541.036      10.321
  H       41.511     539.964      12.899
  H       34.999     535.655       8.597
  H       39.646     541.503      13.304
  H       34.090     536.914       9.391
  H       40.961     542.320      12.438
  P       44.055     539.980      11.250
  C       45.129     538.643       9.333
  O       45.192     538.987      10.705
  O       44.158     539.743      12.833
  O       44.195     541.422      10.910
  H       44.941     540.203      13.185
  H       46.030     538.084       9.069
  H       45.076     539.544       8.714
  H       44.255     538.009       9.149
  H       41.039     546.026      11.978
  H       39.901     545.282      13.075
  H       39.322     546.177      11.690

 3  4  5  6  7  8  9  10  11  12  13  21  23  27  28  29  30  32 0
 6-311+G(2d,p)
 ****
 34  35 0
 6-311+G(2d,p)
 ****
 1  2  14  15  16  17  18  19  20  22  24  25  26 0
 3-21G
 ****
 31  33  36  37  38  39  40  41  42  43  44  45  46 0
 3-21G
 ****


