%nproc=1
%NoSave
%Mem=1900MB
#P OB98/GEN NMR

erre ene a

0 1
  C       38.010     -59.755     -68.988
  O       39.092     -59.450     -68.125
  P       40.585     -59.954     -68.440
  C       41.257     -57.653     -69.410
  O       41.094     -59.040     -69.654
  C       42.614     -57.178     -69.934
  O       42.723     -57.542     -71.335
  C       42.836     -55.664     -69.831
  O       44.225     -55.456     -69.555
  C       42.488     -55.175     -71.224
  O       43.070     -53.915     -71.523
  C       43.007     -56.338     -72.075
  N       42.396     -56.379     -73.399
  C       42.856     -55.473     -74.355
  O       43.729     -54.651     -74.080
  N       42.312     -55.514     -75.614
  C       41.336     -56.328     -75.871
  N       40.872     -56.373     -77.150
  C       40.748     -57.227     -74.861
  C       41.336     -57.215     -73.669
  O       40.715     -61.420     -68.667
  O       41.453     -59.401     -67.220
  H       42.941     -53.735     -72.474
  H       41.440     -60.001     -66.433
  H       39.916     -57.868     -75.116
  H       40.989     -57.858     -72.873
  H       44.097     -56.278     -72.173
  H       41.401     -55.074     -71.314
  H       42.238     -55.201     -69.041
  H       43.401     -57.717     -69.394
  H       41.412     -55.873     -77.848
  H       41.219     -57.486     -68.331
  H       40.365     -57.181     -77.493
  H       40.438     -57.097     -69.876
  P       44.646     -54.169     -68.691
  C       43.558     -55.141     -66.546
  O       43.644     -54.058     -67.447
  O       44.141     -52.969     -69.633
  O       46.102     -54.009     -68.404
  H       44.670     -52.172     -69.442
  H       42.837     -54.888     -65.764
  H       44.527     -55.329     -66.077
  H       43.214     -56.042     -67.061
  H       37.110     -59.328     -68.597
  H       37.899     -60.817     -69.059
  H       38.204     -59.351     -69.960

 3  4  5  6  7  8  9  10  11  12  13  23  27  28  29  30  32 0
 6-311+G(2d,p)
 ****
 34  35 0
 6-311+G(2d,p)
 ****
 1  2  14  15  16  17  18  19  20  21  22  24  25  26 0
 3-21G
 ****
 31  33  36  37  38  39  40  41  42  43  44  45  46 0
 3-21G
 ****


