%nproc=1
%NoSave
%Mem=1900MB
#P OB98/GEN NMR

erre ene a

0 1
  C      995.044    -606.516      36.280
  O      994.323    -607.330      37.164
  P      993.890    -606.775      38.610
  C      992.634    -608.945      39.187
  O      993.642    -608.049      39.585
  C      992.760    -610.236      39.966
  O      993.966    -610.958      39.581
  C      992.881    -610.066      41.462
  O      991.601    -609.785      42.048
  C      993.476    -611.417      41.890
  O      992.426    -612.413      41.989
  C      994.395    -611.722      40.725
  N      998.378    -612.827      43.735
  C      997.078    -613.200      43.808
  N      996.054    -612.827      42.974
  C      996.517    -611.984      42.007
  C      997.783    -611.496      41.863
  C      998.792    -611.973      42.774
  N     1000.111    -611.661      42.679
  N      997.848    -610.630      40.778
  C      996.620    -610.577      40.318
  N      995.787    -611.443      40.991
  O      992.795    -605.757      38.615
  O      995.262    -606.131      39.188
  H      992.858    -613.271      42.203
  H      995.110    -605.183      39.345
  H      996.809    -613.861      44.612
  H      996.302    -609.956      39.483
  H      994.347    -612.788      40.453
  H      993.978    -611.358      42.858
  H      993.591    -609.279      41.698
  H      991.916    -610.896      39.739
  H      992.763    -609.150      38.107
  H     1000.739    -612.173      43.272
  H     1000.480    -611.308      41.802
  H      991.644    -608.492      39.357
  P      991.537    -609.181      43.531
  C      989.064    -609.890      43.831
  O      990.418    -609.998      44.304
  O      991.392    -607.680      43.638
  O      992.891    -609.698      44.226
  H      993.184    -609.030      44.863
  H      988.661    -608.934      44.171
  H      988.506    -610.723      44.215
  H      989.059    -609.929      42.729
  H      995.238    -607.055      35.377
  H      995.971    -606.232      36.732
  H      994.473    -605.639      36.056

 3  4  5  6  7  8  9  10  11  12  22  25  29  30  31  32 0
 6-311+G(2d,p)
 ****
 33  36  37 0
 6-311+G(2d,p)
 ****
 1  2  13  14  15  16  17  18  19  20  21  23  24  26 0
 3-21G
 ****
 27  28  34  35  38  39  40  41  42  43  44  45  46  47  48 0
 3-21G
 ****


