%nproc=1
%NoSave
%Mem=1900MB
#P OB98/GEN NMR

erre ene a

0 1
  C     -238.697     102.349     181.750
  O     -237.866     102.792     182.803
  H     -238.082     101.821     181.019
  H     -239.181     103.196     181.257
  H     -239.454     101.657     182.130
  P     -238.512     103.698     183.955
  C     -239.230     101.739     185.484
  O     -239.650     102.811     184.654
  C     -240.278     101.441     186.562
  O     -241.540     101.110     185.917
  C     -239.909     100.259     187.477
  O     -240.502     100.507     188.757
  C     -240.610      99.110     186.777
  O     -240.692      97.976     187.602
  C     -241.921      99.794     186.372
  N     -242.647      99.052     185.353
  C     -243.429      97.986     185.806
  O     -243.469      97.709     187.004
  N     -244.123      97.242     184.886
  C     -243.990      97.494     183.622
  N     -244.695      96.708     182.761
  C     -243.129      98.574     183.099
  C     -242.495      99.309     184.012
  O     -238.948     105.065     183.541
  O     -237.370     103.767     185.078
  H     -239.834      97.499     187.630
  H     -236.943     104.645     185.058
  H     -243.039      98.732     182.034
  H     -241.838     100.124     183.725
  H     -242.579      99.924     187.244
  H     -240.054      98.809     185.882
  H     -238.830     100.118     187.579
  H     -240.450     102.354     187.148
  H     -245.266      95.974     183.163
  H     -238.285     102.034     185.949
  H     -244.655      96.798     181.757
  H     -239.059     100.839     184.882
  P     -240.161     101.805     189.636
  C     -242.400     102.998     189.157
  O     -240.978     103.060     189.069
  O     -238.698     102.058     189.806
  O     -240.846     101.533     191.062
  H     -240.320     101.971     191.759
  H     -242.822     103.892     188.747
  H     -242.690     102.905     190.183
  H     -242.755     102.151     188.608

 6  7  8  9  10  11  12  13  14  15  16  26  30  31  32  33  35 0
 6-311+G(2d,p)
 ****
 37  38 0
 6-311+G(2d,p)
 ****
 1  2  3  4  5  17  18  19  20  21  22  23  24  25 0
 3-21G
 ****
 27  28  29  34  36  39  40  41  42  43  44  45  46 0
 3-21G
 ****


