%nproc=1
%NoSave
%Mem=1900MB
#P OB98/GEN NMR

erre ene a

0 1
  C     -335.093     -49.847    -410.382
  O     -336.002     -49.734    -411.462
  P     -336.542     -51.088    -412.131
  C     -335.310     -50.718    -414.401
  O     -335.442     -51.520    -413.232
  C     -334.232     -51.291    -415.316
  O     -332.947     -51.277    -414.653
  C     -334.461     -52.747    -415.710
  O     -335.384     -52.866    -416.784
  C     -333.065     -53.151    -416.159
  O     -332.824     -52.679    -417.503
  C     -332.174     -52.400    -415.161
  N     -328.176     -54.469    -412.843
  C     -328.226     -53.514    -413.839
  N     -327.036     -53.087    -414.324
  N     -329.336     -53.011    -414.311
  C     -330.444     -53.533    -413.736
  C     -330.525     -54.484    -412.739
  C     -329.293     -55.042    -412.235
  O     -329.188     -55.925    -411.388
  N     -331.831     -54.749    -412.408
  C     -332.542     -53.967    -413.204
  N     -331.752     -53.242    -414.052
  O     -337.777     -50.600    -413.024
  O     -336.928     -52.161    -411.158
  H     -333.573     -52.998    -418.049
  H     -338.340     -51.362    -413.258
  H     -327.298     -54.827    -412.515
  H     -333.620     -53.903    -413.204
  H     -331.281     -51.987    -415.640
  H     -332.919     -54.232    -416.175
  H     -326.145     -53.486    -414.040
  H     -334.757     -53.351    -414.849
  H     -327.038     -52.436    -415.097
  H     -334.160     -50.651    -416.201
  H     -335.035     -49.694    -414.112
  H     -336.270     -50.674    -414.924
  P     -336.361     -54.146    -416.753
  C     -334.548     -55.688    -417.792
  O     -335.388     -55.415    -416.692
  O     -336.946     -54.181    -418.242
  O     -337.436     -54.074    -415.720
  H     -337.825     -54.615    -418.249
  H     -333.788     -56.414    -417.479
  H     -334.050     -54.777    -418.145
  H     -335.135     -56.132    -418.604
  H     -334.822     -48.870    -410.040
  H     -334.216     -50.367    -410.707
  H     -335.554     -50.389    -409.583

 3  4  5  6  7  8  9  10  11  12  23  26  30  31 0
 6-311+G(2d,p)
 ****
 33  35  36  37  38 0
 6-311+G(2d,p)
 ****
 1  2  13  14  15  16  17  18  19  20  21  22  24  25 0
 3-21G
 ****
 27  28  29  32  34  39  40  41  42  43  44  45  46  47  48  49 0
 3-21G
 ****


