%nproc=1
%NoSave
%Mem=1900MB
#P OB98/GEN NMR

erre ene a

0 1
  C      109.885    -785.936    -860.243
  O      108.847    -786.590    -860.952
  P      109.220    -787.333    -862.324
  C      110.871    -789.036    -861.241
  O      109.628    -788.833    -861.919
  C      111.044    -790.503    -860.869
  O      110.279    -790.798    -859.684
  C      110.564    -791.490    -861.921
  O      111.510    -791.667    -862.966
  C      110.422    -792.758    -861.101
  O      111.701    -793.393    -860.952
  C      109.912    -792.213    -859.733
  N      106.072    -795.427    -859.070
  C      107.417    -795.687    -859.216
  N      107.811    -796.972    -859.145
  N      108.316    -794.752    -859.413
  C      107.796    -793.498    -859.427
  C      106.466    -793.122    -859.290
  C      105.477    -794.172    -859.123
  O      104.266    -794.013    -859.065
  N      106.324    -791.762    -859.349
  C      107.574    -791.304    -859.461
  N      108.488    -792.329    -859.546
  O      110.629    -786.665    -862.705
  O      108.216    -787.186    -863.408
  H      112.294    -792.732    -860.558
  H      110.776    -786.709    -863.678
  H      105.428    -796.186    -858.891
  H      107.837    -790.263    -859.494
  H      110.415    -792.690    -858.898
  H      109.733    -793.489    -861.561
  H      107.178    -797.722    -858.859
  H      109.587    -791.187    -862.330
  H      108.789    -797.176    -859.190
  H      112.118    -790.660    -860.645
  H      110.878    -788.425    -860.310
  H      111.681    -788.688    -861.895
  P      110.962    -792.154    -864.398
  C      110.896    -789.733    -865.329
  O      111.437    -791.028    -865.446
  O      109.380    -791.942    -864.245
  O      111.305    -793.582    -864.725
  H      108.896    -792.557    -864.842
  H      110.752    -789.437    -864.285
  H      109.936    -789.682    -865.857
  H      111.575    -789.032    -865.795
  H      109.485    -785.490    -859.356
  H      110.315    -785.176    -860.861
  H      110.638    -786.648    -859.976

 3  4  5  6  7  8  9  10  11  12  23  26  30  31  33  0
 6-311+G(2d,p)
 ****
 35  36  37  38 0
 6-311+G(2d,p)
 ****
 1  2  13  14  15  16  17  18  19  20  21  22  24  25  27  28  29 0
 3-21G
 ****
 32  34  39  40  41  42  43  44  45  46  47  48  49 0
 3-21G
 ****


