%nproc=1
%NoSave
%Mem=1900MB
#P OB98/GEN NMR

erre ene a

0 1
  C      660.575     -62.497     380.702
  O      659.628     -62.923     381.686
  P      658.237     -63.539     381.163
  C      658.584     -66.000     381.977
  O      657.851     -64.786     382.100
  C      658.346     -66.899     383.184
  O      658.943     -66.347     384.371
  C      656.862     -67.053     383.522
  O      656.244     -67.970     382.647
  C      656.923     -67.529     384.971
  O      656.978     -68.956     385.068
  C      658.233     -66.889     385.505
  N      657.993     -65.857     386.511
  C      658.562     -66.101     387.777
  O      659.190     -67.147     387.975
  N      658.368     -65.174     388.758
  C      657.643     -64.104     388.527
  N      657.492     -63.229     389.550
  C      657.017     -63.833     387.228
  C      657.226     -64.748     386.267
  O      658.652     -64.232     379.777
  O      657.153     -62.521     380.983
  H      657.124     -69.157     386.014
  H      657.909     -64.176     379.143
  H      656.432     -62.941     387.071
  H      656.798     -64.618     385.279
  H      658.875     -67.658     385.940
  H      656.031     -67.206     385.531
  H      656.366     -66.070     383.477
  H      658.797     -67.890     382.990
  H      657.945     -63.456     390.446
  H      659.659     -65.780     381.879
  H      656.961     -62.389     389.483
  H      658.299     -66.501     381.042
  P      654.714     -67.720     382.271
  C      655.170     -65.657     380.801
  O      654.750     -67.002     380.816
  O      654.317     -66.498     383.217
  O      653.763     -68.873     382.419
  H      653.379     -66.295     383.163
  H      655.349     -65.356     379.756
  H      656.099     -65.526     381.352
  H      654.395     -65.014     381.214
  H      661.446     -62.112     381.189
  H      660.138     -61.732     380.094
  H      660.848     -63.329     380.087

 3  4  5  6  7  8  9  10  11  12  13  21  23  27  28  29  30  32 0
 6-311+G(2d,p)
 ****
 34  35 0
 6-311+G(2d,p)
 ****
 1  2  14  15  16  17  18  19  20  22  24  25  26 0
 3-21G
 ****
 31  33  36  37  38  39  40  41  42  43  44  45  46 0
 3-21G
 ****


