%nproc=1
%NoSave
%Mem=1900MB
#P OB98/GEN NMR

erre ene a

0 1
  C       59.760      -6.168     101.676
  O       61.068      -5.653     101.839
  H       59.614      -6.422     100.623
  H       59.011      -5.429     101.967
  H       59.640      -7.075     102.274
  P       61.435      -4.950     103.234
  C       60.071      -2.905     102.455
  O       61.320      -3.369     102.958
  C       59.931      -1.393     102.631
  O       58.676      -0.930     102.088
  C       59.921      -0.933     104.080
  O       61.138      -1.117     104.766
  C       59.337       0.465     103.960
  O       60.318       1.436     103.597
  C       58.325       0.277     102.802
  N       56.945       0.243     103.273
  C       56.477       1.405     103.872
  O       57.167       2.412     104.035
  N       55.184       1.366     104.319
  C       54.352       0.287     104.266
  O       53.207       0.311     104.704
  C       54.916      -0.927     103.656
  C       56.168      -0.895     103.191
  O       62.740      -5.365     103.846
  O       60.166      -5.249     104.159
  H       59.843       2.175     103.172
  H       60.371      -5.081     105.112
  H       54.821       2.205     104.744
  H       54.288      -1.806     103.608
  H       56.605      -1.779     102.734
  H       58.416       1.100     102.081
  H       58.878       0.802     104.892
  H       59.179      -1.531     104.625
  H       60.735      -0.911     102.066
  H       59.277      -3.408     103.019
  H       59.979      -3.173     101.398
  P       61.260      -1.858     106.171
  C       62.148       0.427     107.078
  O       62.217      -0.992     107.123
  O       61.460      -3.338     106.132
  O       59.806      -1.578     106.815
  H       59.573      -2.363     107.350
  H       62.849       0.840     107.772
  H       61.160       0.744     107.338
  H       62.383       0.764     106.090

 6  7  8  9  10  11  12  13  14  15  16  26  31  32  33  34  35 0
 6-311+G(2d,p)
 ****
 36  37 0
 6-311+G(2d,p)
 ****
 1  2  3  4  5  17  18  19  20  21  22  23  24  25 0
 3-21G
 ****
 27  28  29  30  38  39  40  41  42  43  44  45 0
 3-21G
 ****


