%nproc=1
%NoSave
%Mem=1900MB
#P OB98/GEN NMR

erre ene a

0 1
  C      234.869    -103.671     -85.618
  O      233.594    -104.163     -85.254
  H      235.459    -104.464     -86.086
  H      234.740    -102.859     -86.336
  H      235.392    -103.285     -84.738
  P      233.565    -105.350     -84.176
  C      233.733    -103.829     -82.081
  O      234.362    -104.808     -82.893
  C      234.414    -103.759     -80.718
  O      234.356    -105.045     -80.067
  C      235.893    -103.389     -80.763
  O      236.082    -101.990     -80.914
  C      236.347    -103.868     -79.393
  O      235.971    -102.903     -78.392
  C      235.528    -105.156     -79.217
  N      238.237    -109.112     -77.434
  C      237.574    -108.118     -76.807
  N      236.856    -107.111     -77.349
  C      236.848    -107.206     -78.689
  C      237.459    -108.173     -79.469
  C      238.188    -109.162     -78.789
  N      238.921    -110.138     -79.447
  N      237.239    -107.929     -80.811
  C      236.526    -106.823     -80.837
  N      236.259    -106.353     -79.581
  O      234.559    -106.434     -84.815
  O      232.217    -105.928     -83.904
  H      234.998    -102.917     -78.341
  H      234.037    -107.105     -85.292
  H      237.628    -108.129     -75.723
  H      236.187    -106.328     -81.737
  H      235.171    -105.281     -78.190
  H      237.430    -104.003     -79.322
  H      236.426    -103.955     -81.535
  H      233.855    -103.048     -80.098
  H      232.679    -104.090     -81.944
  H      239.729    -110.460     -78.922
  H      239.059    -109.961     -80.435
  H      233.796    -102.861     -82.588
  P      237.588    -101.448     -81.020
  C      237.637    -102.298     -83.462
  O      238.291    -102.279     -82.201
  O      238.268    -102.025     -79.691
  O      237.729     -99.967     -81.099
  H      238.653    -101.293     -79.172
  H      238.209    -102.883     -84.152
  H      237.546    -101.298     -83.832
  H      236.663    -102.727     -83.352

 6  7  8  9  10  11  12  13  14  15  25  28  32  33  34  35 0
 6-311+G(2d,p)
 ****
 36  39  40 0
 6-311+G(2d,p)
 ****
 1  2  3  4  5  16  17  18  19  20  21  22  23  24 0
 3-21G
 ****
 26  27  29  30  31  37  38  41  42  43  44  45  46  47  48 0
 3-21G
 ****


