%nproc=1
%NoSave
%Mem=1900MB
#P OB98/GEN NMR

erre ene a

0 1
  C      787.330     651.212     163.012
  O      788.341     650.636     162.210
  P      789.363     649.626     162.918
  C      791.022     650.221     160.977
  O      790.833     649.992     162.373
  C      792.092     651.287     160.764
  O      791.534     652.592     161.000
  C      793.300     651.182     161.675
  O      794.173     650.126     161.272
  C      793.890     652.577     161.534
  O      794.622     652.683     160.312
  C      792.627     653.448     161.459
  N      793.556     657.275     164.749
  C      794.110     656.953     163.566
  N      793.828     655.915     162.746
  C      792.845     655.165     163.298
  C      792.217     655.341     164.509
  C      792.582     656.468     165.245
  N      792.021     656.805     166.473
  N      791.269     654.366     164.727
  C      791.338     653.580     163.665
  N      792.275     654.027     162.757
  O      789.049     648.219     162.179
  O      789.234     649.506     164.408
  H      795.411     652.107     160.409
  H      789.158     647.466     162.795
  H      794.891     657.642     163.186
  H      790.741     652.697     163.485
  H      792.716     654.279     160.753
  H      794.567     652.839     162.355
  H      792.965     651.019     162.731
  H      792.402     651.246     159.700
  H      790.076     650.551     160.543
  H      792.464     657.524     167.003
  H      791.388     656.127     166.894
  H      791.298     649.275     160.510
  P      794.936     649.305     162.420
  C      796.371     648.211     160.587
  O      796.367     648.999     161.773
  O      794.205     647.879     162.349
  O      794.946     649.970     163.770
  H      794.137     647.550     161.433
  H      797.403     648.119     160.212
  H      795.762     648.696     159.802
  H      795.991     647.219     160.792
  H      786.725     651.860     162.413
  H      787.780     651.774     163.803
  H      786.719     650.438     163.427

 3  4  5  6  7  8  9  10  11  12  22  25  29  30  31  32 0
 6-311+G(2d,p)
 ****
 33  36  37 0
 6-311+G(2d,p)
 ****
 1  2  13  14  15  16  17  18  19  20  21  23  24  26 0
 3-21G
 ****
 27  28  34  35  38  39  40  41  42  43  44  45  46  47  48 0
 3-21G
 ****


