%nproc=1
%NoSave
%Mem=1900MB
#P OB98/GEN NMR

erre ene a

0 1
  C       32.472      69.119     -83.633
  O       33.566      68.651     -84.401
  P       33.771      67.070     -84.555
  C       35.384      65.405     -83.379
  O       34.561      66.554     -83.258
  C       36.669      65.583     -82.567
  O       37.491      66.618     -83.186
  C       36.434      65.998     -81.108
  O       37.469      65.397     -80.316
  C       36.639      67.500     -81.157
  O       36.914      68.069     -79.887
  C       37.796      67.581     -82.158
  N       37.977      68.922     -82.711
  C       38.976      69.713     -82.154
  O       39.707      69.353     -81.233
  N       39.077      70.984     -82.654
  C       38.242      71.558     -83.566
  O       38.315      72.739     -83.885
  C       37.204      70.675     -84.119
  C       37.121      69.419     -83.675
  O       34.852      66.954     -85.729
  O       32.527      66.307     -84.864
  H       36.114      67.968     -79.341
  H       34.415      66.738     -86.574
  H       39.804      71.568     -82.270
  H       36.537      71.092     -84.862
  H       36.352      68.751     -84.051
  H       38.730      67.256     -81.682
  H       35.735      67.977     -81.552
  H       35.449      65.716     -80.725
  H       37.241      64.648     -82.611
  H       35.641      65.257     -84.428
  H       34.833      64.521     -83.040
  P       37.366      65.530     -78.719
  C       38.369      67.180     -76.957
  O       38.159      66.860     -78.316
  O       38.342      64.345     -78.258
  O       35.975      65.397     -78.194
  H       39.160      64.310     -78.780
  H       38.510      66.281     -76.350
  H       37.509      67.738     -76.580
  H       39.261      67.805     -76.874
  H       32.473      70.189     -83.626
  H       32.559      68.756     -82.630
  H       31.558      68.766     -84.062

 3  4  5  6  7  8  9  10  11  12  13  23  28  29  30  31  32 0
 6-311+G(2d,p)
 ****
 33  34 0
 6-311+G(2d,p)
 ****
 1  2  14  15  16  17  18  19  20  21  22  24  25  26 0
 3-21G
 ****
 27  35  36  37  38  39  40  41  42  43  44  45 0
 3-21G
 ****


