%nproc=1
%NoSave
%Mem=1900MB
#P OB98/GEN NMR

erre ene a

0 1
  C      506.660    -899.436     670.780
  O      507.196    -899.246     669.481
  P      506.395    -898.476     668.299
  C      508.418    -896.976     667.652
  O      507.067    -896.996     668.096
  C      508.964    -895.546     667.651
  O      508.332    -894.776     666.601
  C      508.766    -894.776     668.975
  O      509.968    -893.996     669.191
  C      507.583    -893.886     668.653
  O      507.423    -892.806     669.537
  C      507.907    -893.506     667.204
  N      506.852    -892.886     666.435
  C      506.454    -891.596     666.758
  O      506.957    -891.006     667.731
  N      505.467    -890.986     666.028
  C      504.884    -891.596     665.061
  N      503.940    -890.956     664.350
  C      505.264    -892.996     664.646
  C      506.227    -893.566     665.398
  O      504.925    -898.436     668.498
  O      506.755    -899.246     666.957
  H      505.996    -899.246     666.360
  H      507.309    -893.156     670.438
  H      504.784    -893.486     663.817
  H      506.556    -894.576     665.132
  H      508.788    -892.816     667.219
  H      506.667    -894.486     668.711
  H      508.607    -895.426     669.838
  H      510.034    -895.596     667.398
  H      503.717    -890.006     664.629
  H      508.442    -897.376     666.629
  H      503.453    -891.366     663.555
  H      509.023    -897.636     668.308
  P      511.233    -894.666     669.891
  C      512.693    -894.686     667.720
  O      512.047    -895.446     668.741
  O      510.561    -895.896     670.687
  O      512.008    -893.836     670.843
  H      511.131    -896.136     671.438
  H      513.709    -895.086     667.570
  H      512.758    -893.626     667.958
  H      512.121    -894.816     666.807
  H      507.367    -899.967     671.383
  H      505.753    -900.000     670.713
  H      506.456    -898.484     671.224

 3  4  5  6  7  8  9  10  11  12  13  24  27  28  29  30  32 0
 6-311+G(2d,p)
 ****
 34  35 0
 6-311+G(2d,p)
 ****
 1  2  14  15  16  17  18  19  20  21  22  23  25  26 0
 3-21G
 ****
 31  33  36  37  38  39  40  41  42  43  44  45  46 0
 3-21G
 ****


