%nproc=1
%NoSave
%Mem=1900MB
#P OB98/GEN NMR

erre ene a

0 1
  C      283.552    -254.100    -162.671
  O      284.542    -254.450    -163.620
  H      284.016    -253.502    -161.882
  H      283.132    -255.005    -162.221
  H      282.755    -253.511    -163.131
  P      284.083    -255.094    -165.013
  C      284.427    -257.553    -164.304
  O      283.491    -256.545    -164.675
  C      283.935    -258.932    -164.736
  O      285.058    -259.870    -164.661
  C      282.807    -259.508    -163.855
  O      281.975    -260.323    -164.698
  C      283.600    -260.365    -162.886
  O      282.772    -261.249    -162.168
  C      284.619    -260.981    -163.849
  N      285.740    -261.622    -163.173
  C      285.588    -262.955    -162.820
  O      284.585    -263.627    -163.050
  N      286.649    -263.516    -162.151
  C      287.811    -262.882    -161.820
  O      288.736    -263.436    -161.240
  C      287.898    -261.464    -162.201
  C      286.882    -260.905    -162.851
  O      285.100    -255.063    -166.107
  O      282.774    -254.259    -165.408
  H      283.013    -253.555    -166.042
  H      282.204    -261.765    -162.785
  H      286.560    -264.490    -161.883
  H      288.800    -260.927    -161.929
  H      286.906    -259.859    -163.145
  H      284.135    -261.698    -164.516
  H      284.097    -259.734    -162.145
  H      282.197    -258.731    -163.381
  H      283.631    -258.889    -165.791
  H      284.538    -257.523    -163.216
  H      285.393    -257.337    -164.770
  P      280.644    -259.770    -165.411
  C      278.991    -260.045    -163.449
  O      279.666    -259.133    -164.305
  O      279.971    -260.787    -166.283
  O      281.113    -258.512    -166.281
  H      280.592    -258.479    -167.106
  H      278.376    -259.501    -162.763
  H      279.709    -260.621    -162.904
  H      278.380    -260.699    -164.035

 6  7  8  9  10  11  12  13  14  15  16  27  31  32  33  34  35 0
 6-311+G(2d,p)
 ****
 36  37 0
 6-311+G(2d,p)
 ****
 1  2  3  4  5  17  18  19  20  21  22  23  24  25 0
 3-21G
 ****
 26  28  29  30  38  39  40  41  42  43  44  45 0
 3-21G
 ****


