%nproc=1
%NoSave
%Mem=1900MB
#P OB98/GEN NMR

erre ene a

0 1
  C      145.386      77.431     115.273
  O      146.168      76.768     114.302
  H      144.481      76.845     115.456
  H      145.095      78.423     114.915
  H      145.943      77.523     116.208
  P      147.525      77.497     113.842
  C      146.185      78.576     111.891
  O      147.087      78.773     112.972
  C      146.966      78.251     110.624
  O      146.057      78.127     109.505
  C      147.964      79.327     110.215
  O      149.154      79.274     110.987
  C      148.188      78.974     108.755
  O      149.174      77.936     108.607
  C      146.794      78.480     108.311
  N      146.087      79.471     107.506
  C      145.654      79.034     106.259
  O      145.845      77.891     105.835
  N      145.024      79.970     105.481
  C      144.824      81.283     105.811
  O      144.316      82.090     105.037
  C      145.293      81.684     107.150
  C      145.902      80.777     107.920
  O      148.129      76.485     112.759
  O      148.489      77.788     114.942
  H      148.859      75.973     113.154
  H      148.899      77.218     109.207
  H      144.711      79.679     104.570
  H      145.141      82.716     107.445
  H      146.274      81.056     108.904
  H      146.885      77.561     107.718
  H      148.547      79.834     108.185
  H      147.498      80.320     110.273
  H      147.474      77.286     110.764
  H      145.601      79.491     111.732
  H      145.498      77.761     112.148
  P      150.039      80.605     111.124
  C      151.309      80.179     108.859
  O      150.473      81.024     109.635
  O      151.379      80.020     111.776
  O      149.375      81.687     111.906
  H      151.603      79.134     111.447
  H      151.483      80.629     107.904
  H      150.832      79.231     108.725
  H      152.242      80.040     109.363

 6  7  8  9  10  11  12  13  14  15  16  27  31  32  33  34  35 0
 6-311+G(2d,p)
 ****
 36  37 0
 6-311+G(2d,p)
 ****
 1  2  3  4  5  17  18  19  20  21  22  23  24  25 0
 3-21G
 ****
 26  28  29  30  38  39  40  41  42  43  44  45 0
 3-21G
 ****


