%nproc=1
%NoSave
%Mem=1900MB
#P OB98/GEN NMR

erre ene a

0 1
  C      945.758    -895.380    -558.332
  O      945.517    -896.670    -557.806
  H      945.485    -895.350    -559.393
  H      945.138    -894.660    -557.790
  H      946.807    -895.110    -558.208
  P      946.324    -897.870    -558.494
  C      948.221    -898.100    -556.740
  O      947.867    -897.700    -558.057
  C      949.737    -898.150    -556.598
  O      950.241    -899.180    -557.499
  C      950.452    -896.830    -556.944
  O      951.365    -896.470    -555.902
  C      951.245    -897.150    -558.199
  O      952.482    -896.460    -558.259
  C      951.434    -898.660    -558.097
  N      954.969    -899.550    -561.664
  C      955.078    -899.280    -560.345
  N      954.101    -899.140    -559.429
  C      952.896    -899.360    -559.990
  C      952.621    -899.670    -561.314
  C      953.733    -899.740    -562.180
  N      953.609    -899.970    -563.530
  N      951.261    -899.810    -561.516
  C      950.715    -899.550    -560.342
  N      951.667    -899.260    -559.398
  O      946.327    -897.480    -560.047
  O      945.732    -899.230    -558.276
  H      952.966    -896.780    -559.035
  H      945.866    -898.180    -560.551
  H      956.099    -899.130    -559.979
  H      949.652    -899.510    -560.141
  H      952.277    -898.920    -557.445
  H      950.642    -896.880    -559.068
  H      949.747    -896.010    -557.114
  H      949.979    -898.470    -555.582
  H      947.802    -899.090    -556.529
  H      954.445    -899.890    -564.093
  H      952.687    -900.000    -563.932
  H      947.789    -897.370    -556.027
  P      950.753    -895.640    -554.667
  C      951.243    -897.160    -552.613
  O      950.271    -896.690    -553.542
  O      949.378    -895.070    -555.263
  O      951.630    -894.550    -554.177
  H      949.360    -894.100    -555.185
  H      950.783    -897.845    -551.931
  H      951.646    -896.332    -552.069
  H      952.030    -897.657    -553.141

 6  7  8  9  10  11  12  13  14  15  25  28  32  33  34  35 0
 6-311+G(2d,p)
 ****
 36  39  40 0
 6-311+G(2d,p)
 ****
 1  2  3  4  5  16  17  18  19  20  21  22  23  24 0
 3-21G
 ****
 26  27  29  30  31  37  38  41  42  43  44  45  46  47  48 0
 3-21G
 ****


