%nproc=1
%NoSave
%Mem=1900MB
#P OB98/GEN NMR

erre ene a

0 1
  C     -103.793      17.349      48.825
  O     -102.677      18.215      48.928
  H     -104.043      16.978      49.823
  H     -103.564      16.492      48.185
  H     -104.654      17.889      48.424
  P     -102.020      18.768      47.575
  C     -100.777      17.535      45.669
  O     -101.040      17.608      47.067
  C      -99.312      17.182      45.430
  O      -98.465      18.289      45.797
  C      -98.837      16.000      46.263
  O      -99.312      14.781      45.728
  C      -97.335      16.198      46.208
  O      -96.789      15.716      44.974
  C      -97.223      17.739      46.297
  N      -96.949      18.207      47.652
  C      -95.787      18.968      47.815
  O      -95.063      19.215      46.852
  N      -95.468      19.410      49.075
  C      -96.244      19.135      50.076
  N      -95.869      19.602      51.298
  C      -97.484      18.348      49.945
  C      -97.772      17.917      48.717
  O     -101.389      20.126      47.636
  O     -103.224      18.713      46.522
  H      -95.834      15.926      45.005
  H     -103.724      19.550      46.531
  H      -98.103      18.147      50.806
  H      -98.667      17.333      48.533
  H      -96.426      18.106      45.638
  H      -96.832      15.675      47.021
  H      -99.157      16.118      47.303
  H      -99.173      16.992      44.358
  H      -95.003      20.129      51.343
  H     -101.003      18.519      45.246
  H      -96.435      19.526      52.128
  H     -101.428      16.795      45.191
  P      -99.514      13.500      46.671
  C      -98.028      12.292      48.400
  O      -98.067      13.203      47.304
  O     -100.184      12.333      46.027
  O     -100.331      14.093      47.916
  H     -101.275      14.268      47.679
  H      -97.017      12.177      48.732
  H      -98.412      11.343      48.089
  H      -98.626      12.673      49.202

 6  7  8  9  10  11  12  13  14  15  16  26  30  31  32  33  35 0
 6-311+G(2d,p)
 ****
 37  38 0
 6-311+G(2d,p)
 ****
 1  2  3  4  5  17  18  19  20  21  22  23  24  25 0
 3-21G
 ****
 27  28  29  34  36  39  40  41  42  43  44  45  46 0
 3-21G
 ****


