%nproc=1
%NoSave
%Mem=1900MB
#P OB98/GEN NMR

erre ene a

0 1
  C       18.540      54.028      15.754
  O       19.542      53.074      15.450
  P       19.568      51.729      16.327
  C       20.649      49.375      16.070
  O       20.352      50.628      15.467
  C       21.465      48.511      15.112
  O       20.640      48.071      14.015
  C       22.648      49.222      14.469
  O       23.724      49.357      15.384
  C       22.926      48.295      13.292
  O       23.653      47.138      13.735
  C       21.505      47.892      12.861
  N       20.234      47.889       7.902
  C       20.745      46.927       8.702
  N       21.078      47.011      10.006
  C       20.826      48.241      10.482
  C       20.328      49.326       9.783
  C       20.021      49.116       8.430
  N       19.503      50.101       7.616
  N       20.226      50.432      10.599
  C       20.646      50.018      11.777
  N       21.006      48.698      11.761
  O       18.051      51.229      16.272
  O       20.050      51.904      17.733
  H       24.554      47.434      13.971
  H       17.795      50.795      17.109
  H       20.908      45.961       8.232
  H       20.702      50.631      12.666
  H       21.439      46.842      12.558
  H       23.514      48.769      12.499
  H       22.348      50.212      14.104
  H       21.807      47.624      15.662
  H       19.716      48.853      16.307
  H       19.453      49.910       6.627
  H       19.479      51.048       7.973
  H       21.194      49.549      17.002
  P       25.175      49.666      14.773
  C       26.760      51.667      15.053
  O       25.679      50.941      15.610
  O       24.802      50.303      13.357
  O       26.103      48.501      14.739
  H       24.120      50.994      13.435
  H       26.965      52.531      15.690
  H       26.504      52.018      14.049
  H       27.654      51.038      15.013
  H       18.637      54.869      15.099
  H       18.651      54.351      16.768
  H       17.575      53.585      15.625

 3  4  5  6  7  8  9  10  11  12  22  25  29  30  31  32 0
 6-311+G(2d,p)
 ****
 33  36  37 0
 6-311+G(2d,p)
 ****
 1  2  13  14  15  16  17  18  19  20  21  23  24  26 0
 3-21G
 ****
 27  28  34  35  38  39  40  41  42  43  44  45  46  47  48 0
 3-21G
 ****


