%nproc=1
%NoSave
%Mem=1900MB
#P OB98/GEN NMR

erre ene a

0 1
  C       98.985      48.908    -236.359
  O       98.369      49.831    -235.486
  P       97.397      50.996    -235.986
  C       99.307      52.717    -235.598
  O       97.937      52.389    -235.389
  C       99.546      54.225    -235.759
  O       99.159      54.633    -237.088
  C       98.652      55.006    -234.790
  O       99.055      55.200    -233.449
  C       98.277      56.278    -235.539
  O       99.090      57.393    -235.165
  C       98.511      55.912    -237.003
  N       95.772      58.187    -240.611
  C       97.099      58.374    -240.278
  N       97.706      59.435    -240.855
  N       97.752      57.610    -239.444
  C       96.980      56.652    -238.875
  C       95.662      56.358    -239.137
  C       94.965      57.185    -240.094
  O       93.767      57.102    -240.352
  N       95.190      55.365    -238.319
  C       96.207      55.081    -237.534
  N       97.303      55.866    -237.807
  O       95.928      50.717    -235.933
  O       97.810      51.110    -237.540
  H      100.003      57.071    -235.045
  H       97.006      51.341    -238.042
  H       95.299      58.857    -241.206
  H       96.191      54.350    -236.733
  H       99.183      56.635    -237.481
  H       97.242      56.566    -235.317
  H       97.196      60.128    -241.389
  H       97.713      54.444    -234.704
  H       98.621      59.704    -240.506
  H      100.610      54.467    -235.671
  H       99.639      52.175    -236.489
  H       99.902      52.347    -234.757
  P       98.725      54.242    -232.210
  C       96.247      54.858    -232.083
  O       97.491      54.868    -231.403
  O       99.952      54.462    -231.202
  O       98.586      52.795    -232.552
  H      100.029      53.694    -230.606
  H       95.566      55.559    -231.590
  H       95.813      53.855    -232.038
  H       96.369      55.154    -233.129
  H       99.586      48.228    -235.793
  H       99.603      49.434    -237.056
  H       98.233      48.363    -236.890

 3  4  5  6  7  8  9  10  11  12  23  26  30  31 0
 6-311+G(2d,p)
 ****
 33  35  36  37  38 0
 6-311+G(2d,p)
 ****
 1  2  13  14  15  16  17  18  19  20  21  22  24  25 0
 3-21G
 ****
 27  28  29  32  34  39  40  41  42  43  44  45  46  47  48  49 0
 3-21G
 ****


