%nproc=1
%NoSave
%Mem=1900MB
#P OB98/GEN NMR

erre ene a

0 1
  C      859.909    -394.848     689.926
  O      858.554    -394.668     690.267
  H      859.982    -395.668     689.205
  H      860.484    -395.111     690.817
  H      860.330    -393.946     689.474
  P      858.125    -393.335     691.049
  C      856.656    -392.754     689.003
  O      857.607    -392.289     689.950
  C      855.765    -391.611     688.513
  O      854.882    -391.206     689.591
  C      856.589    -390.373     688.125
  O      855.941    -389.589     687.132
  C      856.646    -389.588     689.427
  O      856.899    -388.196     689.233
  C      855.265    -389.888     690.008
  N      854.154    -387.026     694.089
  C      854.236    -386.659     692.764
  N      853.979    -385.356     692.485
  N      854.559    -387.487     691.804
  C      854.852    -388.732     692.231
  C      854.834    -389.214     693.523
  C      854.440    -388.298     694.580
  O      854.383    -388.566     695.772
  N      855.212    -390.529     693.575
  C      855.456    -390.857     692.321
  N      855.228    -389.797     691.466
  O      859.524    -392.699     691.506
  O      857.207    -393.538     692.218
  H      856.233    -387.858     688.602
  H      859.394    -392.099     692.260
  H      853.868    -386.360     694.790
  H      855.781    -391.829     691.975
  H      854.518    -389.178     689.629
  H      857.459    -389.985     690.038
  H      853.920    -384.661     693.210
  H      857.595    -390.626     687.790
  H      854.330    -385.009     691.584
  H      855.125    -391.957     687.696
  H      856.062    -393.527     689.503
  H      857.163    -393.238     688.163
  P      856.675    -389.386     685.717
  C      855.925    -391.590     684.453
  O      856.948    -390.808     685.041
  O      858.140    -388.876     686.118
  O      855.981    -388.443     684.791
  H      858.285    -387.962     685.793
  H      856.345    -392.496     684.068
  H      855.470    -391.041     683.656
  H      855.187    -391.825     685.191

 6  7  8  9  10  11  12  13  14  15  26  29  33  34 0
 6-311+G(2d,p)
 ****
 36  38  39  40  41 0
 6-311+G(2d,p)
 ****
 1  2  3  4  5  16  17  18  19  20  21  22  23  24  25 0
 3-21G
 ****
 27  28  30  31  32  35  37  42  43  44  45  46  47 0
 3-21G
 ****
 48  49 0
 3-21G
 ****


