%nproc=1
%NoSave
%Mem=1900MB
#P OB98/GEN NMR

erre ene a

0 1
  C     1479.994    -890.500     635.064
  O     1479.932    -891.700     634.304
  P     1481.190    -892.240     633.523
  C     1480.391    -894.740     633.765
  O     1480.852    -893.700     632.921
  C     1479.935    -895.890     632.873
  O     1481.039    -896.330     631.992
  C     1479.572    -897.120     633.704
  O     1478.143    -897.160     633.945
  C     1480.051    -898.300     632.845
  O     1479.097    -898.600     631.832
  C     1481.354    -897.700     632.261
  N     1482.570    -897.760     633.071
  C     1483.258    -898.980     633.187
  O     1482.954    -900.000     632.619
  N     1484.360    -898.940     634.012
  C     1484.851    -897.840     634.679
  O     1485.669    -897.870     635.586
  C     1484.235    -896.570     634.292
  C     1483.134    -896.570     633.546
  O     1482.260    -892.590     634.682
  O     1481.772    -891.310     632.489
  H     1478.291    -898.870     632.272
  H     1482.892    -891.860     634.780
  H     1484.798    -899.840     634.213
  H     1484.662    -895.640     634.682
  H     1482.645    -895.650     633.283
  H     1481.577    -898.190     631.278
  H     1480.137    -899.210     633.449
  H     1480.101    -897.130     634.662
  H     1479.113    -895.600     632.260
  H     1479.577    -894.410     634.380
  H     1481.194    -895.070     634.436
  P     1477.576    -897.850     635.225
  C     1475.382    -896.930     634.240
  O     1476.003    -897.980     634.988
  O     1477.981    -897.260     636.546
  O     1478.100    -899.370     635.097
  H     1478.909    -899.510     635.599
  H     1474.400    -897.180     633.984
  H     1475.979    -896.730     633.304
  H     1475.371    -896.020     634.841
  H     1479.041    -890.312     635.512
  H     1480.254    -889.684     634.422
  H     1480.734    -890.601     635.830

 3  4  5  6  7  8  9  10  11  12  13  23  28  29  30  31  32 0
 6-311+G(2d,p)
 ****
 33  34 0
 6-311+G(2d,p)
 ****
 1  2  14  15  16  17  18  19  20  21  22  24  25  26  27 0
 3-21G
 ****
 35  36  37  38  39  40  41  42  43  44  45 0
 3-21G
 ****


