%nproc=1
%NoSave
%Mem=1900MB
#P OB98/GEN NMR

erre ene a

0 1
  C      -38.523     161.438    -293.961
  O      -38.612     160.638    -292.794
  P      -39.990     159.854    -292.531
  C      -39.380     159.836    -290.001
  O      -40.363     160.105    -290.991
  C      -39.430     160.898    -288.905
  O      -38.964     162.168    -289.402
  C      -40.828     161.168    -288.362
  O      -41.230     160.207    -287.400
  C      -40.628     162.524    -287.706
  O      -40.012     162.362    -286.414
  C      -39.661     163.212    -288.676
  N      -40.841     168.018    -289.731
  C      -39.970     167.510    -288.789
  N      -39.376     168.407    -287.975
  N      -39.702     166.235    -288.658
  C      -40.378     165.455    -289.537
  C      -41.263     165.842    -290.516
  C      -41.560     167.253    -290.642
  O      -42.361     167.759    -291.420
  N      -41.739     164.765    -291.215
  C      -41.144     163.726    -290.666
  N      -40.342     164.089    -289.613
  O      -39.549     158.317    -292.556
  O      -41.070     160.147    -293.516
  H      -40.638     161.846    -285.869
  H      -40.333     157.747    -292.677
  H      -41.018     169.006    -289.789
  H      -41.275     162.698    -290.981
  H      -38.906     163.804    -288.151
  H      -41.569     163.060    -287.544
  H      -39.586     169.395    -287.983
  H      -41.558     161.261    -289.176
  H      -38.780     168.056    -287.233
  H      -38.758     160.584    -288.096
  H      -38.392     159.838    -290.467
  H      -39.558     158.842    -289.575
  P      -42.805     159.917    -287.286
  C      -42.257     158.749    -285.030
  O      -43.076     159.665    -285.726
  O      -42.952     158.464    -287.939
  O      -43.671     160.931    -287.953
  H      -43.851     158.343    -288.304
  H      -42.398     158.899    -283.954
  H      -41.202     158.905    -285.268
  H      -42.546     157.725    -285.285
  H      -37.557     161.897    -294.006
  H      -39.277     162.196    -293.932
  H      -38.667     160.825    -294.826

 3  4  5  6  7  8  9  10  11  12  23  26  30  31 0
 6-311+G(2d,p)
 ****
 33  35  36  37  38 0
 6-311+G(2d,p)
 ****
 1  2  13  14  15  16  17  18  19  20  21  22  24  25 0
 3-21G
 ****
 27  28  29  32  34  39  40  41  42  43  44  45  46  47  48  49 0
 3-21G
 ****


