%nproc=1
%NoSave
%Mem=1900MB
#P OB98/GEN NMR

erre ene a

0 1
  C     -310.537     205.198      62.456
  O     -311.004     206.526      62.303
  H     -310.526     204.714      61.475
  H     -311.204     204.641      63.120
  H     -309.523     205.197      62.863
  P     -311.054     207.421      63.632
  C     -313.514     207.989      62.976
  O     -312.609     207.586      63.995
  C     -314.509     209.016      63.530
  O     -315.378     208.343      64.492
  C     -313.844     210.187      64.268
  O     -314.677     211.351      64.124
  C     -313.893     209.715      65.710
  O     -313.679     210.791      66.593
  C     -315.281     209.083      65.728
  N     -315.310     208.839      70.822
  C     -315.143     209.872      69.970
  N     -315.162     209.858      68.620
  C     -315.402     208.614      68.167
  C     -315.587     207.464      68.910
  C     -315.530     207.603      70.306
  N     -315.674     206.552      71.179
  N     -315.783     206.375      68.080
  C     -315.720     206.863      66.857
  N     -315.495     208.213      66.861
  O     -310.631     208.875      63.107
  O     -310.193     206.958      64.757
  H     -313.821     210.521      67.521
  H     -309.667     208.997      63.210
  H     -314.977     210.840      70.431
  H     -315.822     206.297      65.941
  H     -316.080     209.835      65.737
  H     -313.117     208.967      65.909
  H     -312.836     210.410      63.908
  H     -315.153     209.367      62.716
  H     -314.046     207.106      62.612
  H     -312.951     208.439      62.149
  H     -315.591     206.732      72.169
  H     -315.804     205.618      70.811
  P     -314.199     212.538      63.149
  C     -313.442     213.939      65.216
  O     -313.155     213.494      63.900
  O     -315.513     213.458      63.081
  O     -313.799     212.113      61.774
  H     -315.690     213.713      62.153
  H     -312.645     214.563      65.563
  H     -313.541     213.094      65.865
  H     -314.356     214.495      65.213

 6  7  8  9  10  11  12  13  14  15  25  28  32  33  34  35 0
 6-311+G(2d,p)
 ****
 36  37  40 0
 6-311+G(2d,p)
 ****
 1  2  3  4  5  16  17  18  19  20  21  22  23  24 0
 3-21G
 ****
 26  27  29  30  31  38  39 41  42  43  44  45  46  47  48 0
 3-21G
 ****


