%nproc=1
%NoSave
%Mem=1900MB
#P OB98/GEN NMR

erre ene a

0 1
  C     -639.376    -482.586     483.400
  O     -638.739    -483.708     483.963
  P     -638.780    -483.863     485.560
  C     -638.745    -486.442     485.975
  O     -638.014    -485.221     485.931
  C     -637.776    -487.639     485.966
  O     -637.442    -488.003     484.598
  C     -636.447    -487.348     486.641
  O     -636.553    -487.420     488.054
  C     -635.543    -488.428     486.065
  O     -635.702    -489.669     486.755
  C     -636.101    -488.542     484.611
  N     -635.245    -487.885     483.626
  C     -634.131    -488.621     483.204
  O     -633.874    -489.740     483.650
  N     -633.316    -487.994     482.286
  C     -633.466    -486.717     481.812
  O     -632.669    -486.193     481.039
  C     -634.639    -485.978     482.322
  C     -635.454    -486.586     483.193
  O     -640.310    -484.198     485.882
  O     -638.291    -482.663     486.307
  H     -635.297    -489.545     487.630
  H     -640.564    -483.779     486.740
  H     -632.527    -488.518     481.959
  H     -634.786    -484.981     481.971
  H     -636.312    -486.058     483.591
  H     -636.199    -489.602     484.329
  H     -634.488    -488.171     486.094
  H     -636.075    -486.359     486.338
  H     -638.277    -488.488     486.435
  H     -639.410    -486.501     485.105
  H     -639.356    -486.460     486.880
  P     -635.431    -486.660     488.929
  C     -637.113    -486.235     490.886
  O     -635.908    -486.817     490.443
  O     -635.737    -485.143     488.544
  O     -634.032    -487.120     488.595
  H     -636.677    -484.980     488.374
  H     -637.884    -486.279     490.090
  H     -636.943    -485.199     491.159
  H     -637.489    -486.780     491.748
  H     -639.270    -482.612     482.336
  H     -638.928    -481.693     483.781
  H     -640.415    -482.600     483.655

 3  4  5  6  7  8  9  10  11  12  13  23  28  29  30  31  32 0
 6-311+G(2d,p)
 ****
 33  34 0
 6-311+G(2d,p)
 ****
 1  2  14  15  16  17  18  19  20  21  22  24  25  26 0
 3-21G
 ****
 27  35  36  37  38  39  40  41  42  43  44  45 0
 3-21G
 ****


