%nproc=1
%NoSave
%Mem=1900MB
#P OB98/GEN NMR

erre ene a

0 1
  C       79.875    -113.179     178.116
  O       80.775    -112.694     179.086
  H       79.639    -114.221     178.352
  H       80.330    -113.150     177.122
  H       78.950    -112.599     178.122
  P       81.331    -111.193     178.960
  C       80.324    -109.122     177.827
  O       80.048    -110.298     178.577
  C       79.294    -108.030     178.118
  O       77.996    -108.437     177.607
  C       79.126    -107.723     179.614
  O       79.142    -106.308     179.821
  C       77.745    -108.269     179.937
  O       77.148    -107.642     181.069
  C       77.029    -108.054     178.600
  N       75.798    -108.828     178.507
  C       74.710    -108.346     179.243
  O       74.819    -107.321     179.915
  N       73.543    -109.064     179.244
  C       73.481    -110.191     178.606
  N       72.304    -110.870     178.673
  C       74.614    -110.751     177.841
  C       75.729    -110.022     177.830
  O       82.505    -111.037     178.054
  O       81.636    -110.742     180.466
  H       76.462    -108.243     181.432
  H       82.288    -110.004     180.452
  H       74.514    -111.698     177.331
  H       76.614    -110.352     177.297
  H       76.788    -106.992     178.451
  H       77.821    -109.345     180.150
  H       79.894    -108.182     180.236
  H       79.575    -107.129     177.558
  H       71.556    -110.453     179.214
  H       80.319    -109.378     176.761
  H       72.147    -111.766     178.238
  H       81.318    -108.759     178.104
  P       80.575    -105.593     179.712
  C       81.827    -104.882     177.553
  O       80.631    -104.807     178.313
  O       81.584    -106.818     179.509
  O       80.929    -104.783     180.914
  H       82.131    -106.934     180.309
  H       81.715    -104.313     176.654
  H       82.029    -105.903     177.306
  H       82.639    -104.486     178.126

 6  7  8  9  10  11  12  13  14  15  16  26  30  31  32  33  35 0
 6-311+G(2d,p)
 ****
 37  38 0
 6-311+G(2d,p)
 ****
 1  2  3  4  5  17  18  19  20  21  22  23  24  25 0
 3-21G
 ****
 27  28  29  34  36  39  40  41  42  43  44  45  46 0
 3-21G
 ****


