%nproc=1
%NoSave
%Mem=1900MB
#P OB98/GEN NMR

erre ene a

0 1
  C     -156.558    -146.780    -187.503
  O     -155.826    -147.711    -186.732
  H     -157.139    -147.322    -188.253
  H     -155.875    -146.095    -188.014
  H     -157.244    -146.211    -186.868
  P     -154.989    -147.133    -185.492
  C     -153.033    -146.517    -187.096
  O     -153.948    -146.073    -186.105
  C     -152.079    -145.377    -187.466
  O     -152.851    -144.304    -188.069
  C     -151.339    -144.786    -186.256
  O     -150.013    -144.428    -186.651
  C     -152.140    -143.536    -185.938
  O     -151.401    -142.548    -185.231
  C     -152.558    -143.089    -187.344
  N     -153.716    -142.201    -187.333
  C     -153.475    -140.832    -187.359
  O     -152.361    -140.316    -187.466
  N     -154.585    -140.031    -187.252
  C     -155.873    -140.454    -187.101
  O     -156.826    -139.690    -186.987
  C     -156.066    -141.913    -187.072
  C     -154.994    -142.706    -187.186
  O     -154.053    -148.364    -185.071
  O     -155.799    -146.612    -184.354
  H     -154.498    -148.915    -184.402
  H     -152.009    -141.814    -185.014
  H     -154.428    -139.033    -187.271
  H     -157.073    -142.291    -186.947
  H     -155.100    -143.785    -187.152
  H     -151.719    -142.600    -187.856
  H     -153.020    -143.794    -185.338
  H     -151.302    -145.472    -185.409
  H     -151.373    -145.735    -188.226
  H     -153.590    -146.823    -187.987
  H     -152.469    -147.373    -186.712
  P     -148.887    -145.576    -186.585
  C     -147.724    -144.918    -184.335
  O     -148.590    -145.806    -185.024
  O     -147.606    -144.790    -187.122
  O     -149.258    -146.799    -187.358
  H     -147.568    -143.863    -186.838
  H     -147.643    -145.221    -183.312
  H     -148.120    -143.925    -184.382
  H     -146.756    -144.938    -184.791

 6  7  8  9  10  11  12  13  14  15  16  27  31  32  33  34  35 0
 6-311+G(2d,p)
 ****
 36  37 0
 6-311+G(2d,p)
 ****
 1  2  3  4  5  17  18  19  20  21  22  23  24  25 0
 3-21G
 ****
 26  28  29  30  38  39  40  41  42  43  44  45 0
 3-21G
 ****


