%nproc=1
%NoSave
%Mem=1900MB
#P OB98/GEN NMR

erre ene a

0 1
  C      -94.617    -215.885    -255.066
  O      -93.476    -215.322    -255.681
  H      -94.298    -216.686    -254.392
  H      -95.282    -216.307    -255.824
  H      -95.152    -215.129    -254.484
  P      -93.710    -214.048    -256.624
  C      -93.130    -215.095    -258.938
  O      -94.144    -214.623    -258.060
  C      -93.693    -215.220    -260.357
  O      -94.783    -216.184    -260.339
  C      -94.258    -213.899    -260.908
  O      -93.977    -213.824    -262.308
  C      -95.752    -214.043    -260.685
  O      -96.536    -213.235    -261.552
  C      -95.942    -215.546    -260.919
  N      -97.169    -216.058    -260.321
  C      -98.369    -215.459    -260.696
  O      -98.474    -214.576    -261.548
  N      -99.490    -215.907    -260.037
  C      -99.523    -216.856    -259.056
  O     -100.551    -217.201    -258.486
  C      -98.224    -217.449    -258.697
  C      -97.124    -217.028    -259.335
  O      -92.225    -213.500    -256.884
  O      -94.621    -213.001    -256.081
  H      -91.982    -212.844    -256.206
  H      -96.162    -212.330    -261.543
  H     -100.366    -215.484    -260.298
  H      -98.207    -218.198    -257.918
  H      -96.151    -217.434    -259.082
  H      -95.933    -215.770    -261.994
  H      -96.006    -213.778    -259.654
  H      -93.851    -213.024    -260.400
  H      -92.915    -215.622    -261.016
  H      -92.791    -216.077    -258.597
  H      -92.288    -214.397    -258.925
  P      -92.921    -212.708    -262.794
  C      -94.730    -210.976    -263.552
  O      -93.682    -211.299    -262.654
  O      -92.875    -212.983    -264.365
  O      -91.609    -212.804    -262.086
  H      -93.731    -213.235    -264.744
  H      -95.119    -210.008    -263.313
  H      -95.509    -211.704    -263.467
  H      -94.353    -210.972    -264.553

 6  7  8  9  10  11  12  13  14  15  16  27  31  32  33  34  35 0
 6-311+G(2d,p)
 ****
 36  37 0
 6-311+G(2d,p)
 ****
 1  2  3  4  5  17  18  19  20  21  22  23  24  25 0
 3-21G
 ****
 26  28  29  30  38  39  40  41  42  43  44  45 0
 3-21G
 ****


