%nproc=1
%NoSave
%Mem=1900MB
#P OB98/GEN NMR

erre ene a

0 1
  C      -25.910     194.699     -76.846
  O      -25.314     193.502     -76.383
  P      -25.670     192.942     -74.927
  C      -24.071     193.218     -72.934
  O      -24.935     193.879     -73.852
  C      -22.716     192.944     -73.586
  O      -22.299     194.076     -74.377
  C      -21.587     192.701     -72.592
  O      -21.667     191.399     -72.045
  C      -20.363     192.950     -73.469
  O      -20.057     191.785     -74.250
  C      -20.855     194.089     -74.376
  N      -16.816     197.207     -74.307
  C      -16.947     195.910     -74.660
  N      -18.053     195.135     -74.612
  C      -19.091     195.828     -74.121
  C      -19.102     197.144     -73.685
  C      -17.899     197.858     -73.815
  N      -17.769     199.197     -73.518
  N      -20.357     197.488     -73.212
  C      -21.082     196.397     -73.354
  N      -20.378     195.394     -73.956
  O      -25.462     191.478     -74.737
  O      -27.215     193.325     -74.741
  H      -19.446     192.062     -74.957
  H      -27.737     192.509     -74.614
  H      -16.048     195.433     -75.039
  H      -22.117     196.293     -73.053
  H      -20.537     193.947     -75.416
  H      -19.473     193.197     -72.887
  H      -21.621     193.457     -71.799
  H      -22.829     192.085     -74.259
  H      -24.539     192.274     -72.640
  H      -16.904     199.641     -73.785
  H      -18.614     199.759     -73.447
  H      -23.943     193.841     -72.045
  P      -20.667     190.965     -70.873
  C      -18.809     189.242     -71.271
  O      -19.288     190.540     -71.572
  O      -21.212     189.986     -69.888
  O      -20.292     192.352     -70.166
  H      -20.133     192.199     -69.216
  H      -18.342     189.244     -70.281
  H      -18.057     188.964     -72.016
  H      -19.620     188.510     -71.294
  H      -25.556     194.916     -77.832
  H      -25.651     195.503     -76.189
  H      -26.974     194.583     -76.867

 3  4  5  6  7  8  9  10  11  12  22  25  29  30  31  32 0
 6-311+G(2d,p)
 ****
 33  36  37 0
 6-311+G(2d,p)
 ****
 1  2  13  14  15  16  17  18  19  20  21  23  24  26 0
 3-21G
 ****
 27  28  34  35  38  39  40  41  42  43  44  45  46  47  48 0
 3-21G
 ****


