%nproc=1
%NoSave
%Mem=1900MB
#P OB98/GEN NMR

erre ene a

0 1
  C      388.762      62.762     352.275
  O      387.365      63.019     352.077
  P      386.728      64.490     352.083
  C      386.550      66.484     350.433
  O      386.902      65.114     350.607
  C      387.038      67.000     349.078
  O      388.453      66.725     348.914
  C      386.391      66.349     347.860
  O      385.057      66.784     347.658
  C      387.362      66.755     346.756
  O      387.066      68.068     346.254
  C      388.716      66.772     347.494
  N      389.596      65.687     347.089
  C      389.967      65.642     345.746
  O      389.489      66.448     344.940
  N      390.856      64.676     345.335
  C      391.253      63.775     346.178
  N      392.149      62.851     345.722
  C      390.783      63.700     347.571
  C      389.964      64.680     347.959
  O      387.246      65.372     353.170
  O      385.149      64.272     352.223
  H      384.742      65.054     352.635
  H      387.101      68.677     347.015
  H      391.109      62.907     348.228
  H      389.580      64.711     348.975
  H      389.227      67.726     347.326
  H      387.325      66.067     345.900
  H      386.413      65.257     347.979
  H      386.887      68.089     349.051
  H      392.463      62.937     344.762
  H      387.025      67.069     351.229
  H      392.543      62.120     346.300
  H      385.463      66.590     350.526
  P      383.887      65.803     348.143
  C      382.905      65.232     350.479
  O      383.495      66.214     349.641
  O      384.629      64.395     348.316
  O      382.737      65.695     347.194
  H      384.046      63.675     348.010
  H      383.145      65.479     351.518
  H      383.285      64.235     350.254
  H      381.822      65.250     350.352
  H      388.941      61.708     352.228
  H      389.060      63.132     353.234
  H      389.327      63.254     351.511

 3  4  5  6  7  8  9  10  11  12  13  24  27  28  29  30  32 0
 6-311+G(2d,p)
 ****
 34  35 0
 6-311+G(2d,p)
 ****
 1  2  14  15  16  17  18  19  20  21  22  23  25  26 0
 3-21G
 ****
 31  33  36  37  38  39  40  41  42  43  44  45  46 0
 3-21G
 ****


