%nproc=1
%NoSave
%Mem=1900MB
#P OB98/GEN NMR

erre ene a

0 1
  C     -246.204    -240.451    -109.327
  O     -245.005    -240.669    -108.610
  H     -246.386    -239.381    -109.443
  H     -246.106    -240.902    -110.317
  H     -247.043    -240.921    -108.806
  P     -244.908    -239.988    -107.160
  C     -243.639    -237.975    -108.196
  O     -244.741    -238.411    -107.413
  C     -243.693    -236.463    -108.388
  O     -244.850    -236.099    -109.169
  C     -243.807    -235.663    -107.099
  O     -242.557    -235.541    -106.431
  C     -244.285    -234.320    -107.641
  O     -243.164    -233.578    -108.154
  C     -245.209    -234.742    -108.794
  N     -249.735    -232.491    -109.706
  C     -248.502    -232.283    -110.228
  N     -247.346    -232.910    -109.928
  C     -247.543    -233.858    -108.994
  C     -248.740    -234.184    -108.378
  C     -249.875    -233.444    -108.760
  N     -251.122    -233.658    -108.212
  N     -248.559    -235.216    -107.481
  C     -247.278    -235.513    -107.557
  N     -246.620    -234.711    -108.455
  O     -243.459    -240.431    -106.632
  O     -245.982    -240.376    -106.196
  H     -242.811    -234.091    -108.906
  H     -243.505    -240.578    -105.670
  H     -248.438    -231.506    -110.984
  H     -246.786    -236.294    -106.988
  H     -245.058    -234.116    -109.677
  H     -244.768    -233.701    -106.884
  H     -244.575    -236.081    -106.436
  H     -242.797    -236.163    -108.952
  H     -243.681    -238.464    -109.179
  H     -251.921    -233.245    -108.662
  H     -251.218    -234.384    -107.508
  H     -242.714    -238.263    -107.693
  P     -242.585    -235.255    -104.850
  C     -241.952    -232.746    -105.075
  O     -242.944    -233.695    -104.703
  O     -241.036    -235.318    -104.444
  O     -243.409    -236.207    -104.049
  H     -240.952    -235.551    -103.500
  H     -242.331    -231.757    -104.924
  H     -241.701    -232.878    -106.107
  H     -241.078    -232.889    -104.474

 6  7  8  9  10  11  12  13  14  15  25  28  32  33  34  35 0
 6-311+G(2d,p)
 ****
 36  39  40 0
 6-311+G(2d,p)
 ****
 1  2  3  4  5  16  17  18  19  20  21  22  23  24 0
 3-21G
 ****
 26  27  29  30  31  37  38  41  42  43  44  45  46  47  48 0
 3-21G
 ****


