%nproc=1
%NoSave
%Mem=1900MB
#P OB98/GEN NMR

erre ene a

0 1
  C       74.836     147.441    -142.181
  O       74.411     148.760    -142.486
  P       75.299     149.610    -143.517
  C       74.138     148.548    -145.569
  O       75.361     148.757    -144.877
  C       74.337     148.680    -147.075
  O       73.123     148.251    -147.750
  C       74.647     150.109    -147.548
  O       75.697     150.065    -148.526
  C       73.374     150.532    -148.260
  O       73.618     151.535    -149.240
  C       72.912     149.189    -148.824
  N       69.922     148.956    -152.886
  C       71.275     148.708    -152.771
  N       71.931     148.409    -153.915
  N       71.929     148.749    -151.640
  C       71.139     149.028    -150.575
  C       69.787     149.285    -150.560
  C       69.089     149.293    -151.828
  O       67.911     149.595    -152.006
  N       69.336     149.510    -149.284
  C       70.411     149.395    -148.529
  N       71.540     149.150    -149.272
  O       76.775     149.473    -142.914
  O       74.908     151.039    -143.666
  H       72.780     151.674    -149.720
  H       77.151     150.361    -142.754
  H       69.473     148.928    -153.784
  H       70.427     149.511    -147.452
  H       73.547     148.888    -149.668
  H       72.665     150.927    -147.523
  H       71.482     148.325    -154.812
  H       74.920     150.800    -146.745
  H       72.919     148.202    -153.847
  H       75.133     147.990    -147.383
  H       73.406     149.292    -145.238
  H       73.759     147.550    -145.327
  P       76.665     151.346    -148.575
  C       78.347     150.121    -147.009
  O       77.557     151.269    -147.250
  O       75.673     152.570    -148.300
  O       77.410     151.492    -149.860
  H       76.037     153.395    -148.674
  H       78.377     149.453    -147.875
  H       77.932     149.576    -146.159
  H       79.366     150.434    -146.769
  H       74.154     146.998    -141.486
  H       75.815     147.472    -141.749
  H       74.860     146.858    -143.078

 3  4  5  6  7  8  9  10  11  12  23  26  30  31  33  0
 6-311+G(2d,p)
 ****
 35  36  37  38 0
 6-311+G(2d,p)
 ****
 1  2  13  14  15  16  17  18  19  20  21  22  24  25  27  28  29 0
 3-21G
 ****
 32  34  39  40  41  42  43  44  45  46  47  48  49 0
 3-21G
 ****


