%nproc=1
%NoSave
%Mem=1900MB
#P OB98/GEN NMR

erre ene a

0 1
  C     -452.954    2912.889       6.187
  O     -451.609    2912.931       6.572
  H     -453.296    2913.928       5.982
  H     -453.572    2912.484       6.978
  H     -453.080    2912.310       5.258
  P     -450.830    2911.553       6.798
  C     -449.509    2911.682       4.549
  O     -450.477    2910.958       5.332
  C     -449.512    2911.156       3.105
  O     -448.976    2909.820       3.078
  C     -450.921    2911.136       2.473
  O     -450.830    2911.511       1.124
  C     -451.317    2909.672       2.583
  O     -452.240    2909.277       1.590
  C     -449.954    2908.973       2.446
  N     -449.877    2903.994       1.516
  C     -449.759    2905.072       0.646
  N     -449.645    2904.757      -0.656
  N     -449.781    2906.311       1.032
  C     -449.915    2906.446       2.374
  C     -450.028    2905.485       3.329
  C     -450.006    2904.112       2.910
  O     -450.115    2903.116       3.641
  N     -450.119    2906.046       4.595
  C     -450.081    2907.352       4.382
  N     -449.954    2907.645       3.072
  O     -451.486    2910.586       7.707
  O     -449.394    2911.991       7.345
  H     -452.559    2908.367       1.825
  H     -449.315    2911.795       8.312
  H     -449.857    2903.079       1.182
  H     -450.153    2908.101       5.158
  H     -449.665    2908.826       1.405
  H     -451.737    2909.444       3.580
  H     -449.585    2903.825      -1.026
  H     -451.628    2911.777       3.013
  H     -449.528    2905.519      -1.318
  H     -448.853    2911.810       2.525
  H     -448.541    2911.484       5.016
  H     -449.734    2912.740       4.599
  P     -450.237    2912.980       0.749
  C     -449.402    2912.008      -1.488
  O     -449.090    2912.788      -0.338
  O     -449.893    2913.823       1.936
  O     -451.439    2913.628      -0.097
  H     -451.428    2914.585       0.062
  H     -448.547    2911.962      -2.130
  H     -450.219    2912.458      -2.013
  H     -449.674    2911.019      -1.185

 6  7  8  9  10  11  12  13  14  15  26  29  33  34 0
 6-311+G(2d,p)
 ****
 36  38  39  40  41 0
 6-311+G(2d,p)
 ****
 1  2  3  4  5  16  17  18  19  20  21  22  23  24  25 0
 3-21G
 ****
 27  28  30  31  32  35  37  42  43  44  45  46  47 0
 3-21G
 ****
 48  49 0
 3-21G
 ****


