%nproc=1
%NoSave
%Mem=1900MB
#P OB98/GEN NMR

erre ene a

0 1
  C        1.680    -185.367     -69.533
  O        3.007    -185.868     -69.510
  P        4.159    -184.882     -68.981
  C        3.821    -185.674     -66.527
  O        3.825    -184.581     -67.438
  C        4.498    -185.300     -65.205
  O        3.982    -184.020     -64.761
  C        4.277    -186.313     -64.081
  O        5.480    -186.386     -63.314
  C        3.192    -185.677     -63.236
  O        3.222    -186.149     -61.890
  C        3.519    -184.183     -63.405
  N        2.365    -183.332     -63.129
  C        2.458    -182.482     -62.018
  O        3.444    -182.537     -61.283
  N        1.411    -181.638     -61.742
  C        0.324    -181.709     -62.445
  N       -0.683    -180.847     -62.138
  C        0.142    -182.675     -63.549
  C        1.196    -183.431     -63.846
  O        3.813    -183.502     -69.710
  O        5.551    -185.341     -69.269
  H        2.618    -185.589     -61.354
  H        4.622    -182.993     -69.899
  H       -0.798    -182.719     -64.081
  H        1.163    -184.151     -64.654
  H        4.337    -183.890     -62.735
  H        2.205    -185.903     -63.660
  H        4.017    -187.309     -64.452
  H        5.571    -185.170     -65.395
  H       -0.537    -180.206     -61.368
  H        4.376    -186.506     -66.970
  H       -1.566    -180.834     -62.631
  H        2.795    -186.001     -66.358
  P        5.813    -187.773     -62.577
  C        7.703    -188.248     -64.250
  O        6.473    -188.695     -63.711
  O        4.350    -188.422     -62.448
  O        6.500    -187.725     -61.254
  H        4.406    -189.258     -61.951
  H        8.104    -189.031     -64.903
  H        8.422    -188.052     -63.452
  H        7.544    -187.344     -64.845
  H        1.020    -186.123     -69.904
  H        1.634    -184.509     -70.170
  H        1.385    -185.092     -68.542

 3  4  5  6  7  8  9  10  11  12  13  21  23  27  28  29  30  32 0
 6-311+G(2d,p)
 ****
 34  35 0
 6-311+G(2d,p)
 ****
 1  2  14  15  16  17  18  19  20  22  24  25  26 0
 3-21G
 ****
 31  33  36  37  38  39  40  41  42  43  44  45  46 0
 3-21G
 ****


