%nproc=1
%NoSave
%Mem=1900MB
#P OB98/GEN NMR

erre ene a

0 1
  C     -193.072    -172.840     742.811
  O     -193.777    -173.126     741.621
  P     -193.072    -172.938     740.187
  C     -195.447    -172.912     739.183
  O     -194.190    -172.251     739.252
  C     -196.460    -172.062     738.417
  O     -196.850    -170.904     739.185
  C     -195.944    -171.519     737.086
  O     -195.945    -172.525     736.096
  C     -196.917    -170.380     736.834
  O     -198.139    -170.858     736.242
  C     -197.186    -169.850     738.262
  N     -196.437    -168.624     738.547
  C     -196.781    -167.512     737.779
  O     -197.644    -167.599     736.890
  N     -196.107    -166.324     737.983
  C     -195.163    -166.274     738.879
  N     -194.526    -165.078     739.031
  C     -194.751    -167.441     739.687
  C     -195.418    -168.572     739.471
  O     -192.434    -174.161     739.631
  O     -192.040    -171.735     740.454
  H     -197.890    -171.333     735.427
  H     -191.259    -172.044     740.974
  H     -193.949    -167.353     740.409
  H     -195.188    -169.475     740.025
  H     -198.258    -169.638     738.408
  H     -196.512    -169.621     736.152
  H     -194.934    -171.107     737.225
  H     -197.365    -172.668     738.246
  H     -194.817    -164.316     738.430
  H     -195.813    -173.069     740.205
  H     -193.751    -164.950     739.665
  H     -195.321    -173.886     738.706
  P     -194.845    -172.492     734.927
  C     -196.527    -173.878     733.551
  O     -195.606    -172.800     733.543
  O     -193.621    -173.310     735.171
  O     -194.479    -170.937     734.799
  H     -193.517    -170.841     734.723
  H     -197.206    -173.772     732.697
  H     -197.120    -173.876     734.469
  H     -195.984    -174.821     733.470
  H     -193.705    -173.025     743.654
  H     -192.772    -171.813     742.810
  H     -192.206    -173.465     742.871

 3  4  5  6  7  8  9  10  11  12  13  23  27  28  29  30  32 0
 6-311+G(2d,p)
 ****
 34  35 0
 6-311+G(2d,p)
 ****
 1  2  14  15  16  17  18  19  20  21  22  24  25  26 0
 3-21G
 ****
 31  33  36  37  38  39  40  41  42  43  44  45  46 0
 3-21G
 ****


