%nproc=1
%NoSave
%Mem=1900MB
#P OB98/GEN NMR

erre ene a

0 1
  C     -332.247     484.439    -899.411
  O     -332.464     484.711    -898.021
  P     -331.585     483.925    -896.921
  C     -333.775     483.131    -895.801
  O     -332.469     482.749    -896.301
  C     -334.375     481.989    -895.051
  O     -334.551     480.817    -895.871
  C     -333.587     481.515    -893.841
  O     -333.717     482.431    -892.751
  C     -334.170     480.148    -893.591
  O     -335.399     480.232    -892.831
  C     -334.470     479.653    -895.031
  N     -333.709     475.208    -897.411
  C     -334.819     475.777    -896.891
  N     -334.940     476.954    -896.281
  C     -333.719     477.543    -896.121
  C     -332.490     477.056    -896.531
  C     -332.507     475.833    -897.251
  N     -331.391     475.264    -897.811
  N     -331.483     477.904    -896.181
  C     -332.083     478.907    -895.531
  N     -333.465     478.735    -895.551
  O     -330.890     484.796    -895.921
  O     -330.483     483.133    -897.821
  H     -335.773     479.313    -892.791
  H     -329.584     483.442    -897.571
  H     -335.750     475.247    -897.101
  H     -331.587     479.743    -895.081
  H     -335.452     479.152    -895.101
  H     -333.498     479.467    -893.041
  H     -332.512     481.418    -894.121
  H     -335.406     482.302    -894.711
  H     -334.396     483.410    -896.681
  H     -331.529     474.487    -898.431
  H     -330.556     475.871    -897.961
  H     -333.652     484.019    -895.181
  P     -332.915     482.171    -891.381
  C     -335.135     481.810    -890.141
  O     -333.855     481.287    -890.451
  O     -332.301     483.392    -890.731
  O     -331.746     481.118    -891.841
  H     -330.931     481.252    -891.291
  H     -335.046     482.610    -889.401
  H     -335.791     481.034    -889.791
  H     -335.602     482.250    -891.071
  H     -332.908     485.041    -900.000
  H     -332.438     483.404    -899.606
  H     -331.233     484.669    -899.666

 3  4  5  6  7  8  9  10  11  12  22  25  29  30  31  32 0
 6-311+G(2d,p)
 ****
 33  36  37 0
 6-311+G(2d,p)
 ****
 1  2  13  14  15  16  17  18  19  20  21  23  24  26 0
 3-21G
 ****
 27  28  34  35  38  39  40  41  42  43  44  45  46  47  48 0
 3-21G
 ****


