%nproc=1
%NoSave
%Mem=1900MB
#P OB98/GEN NMR

erre ene a

0 1
  C      -52.250      75.636    -181.558
  O      -53.490      75.010    -181.307
  H      -51.554      75.368    -180.760
  H      -52.379      76.722    -181.565
  H      -51.829      75.311    -182.513
  P      -54.571      74.935    -182.484
  C      -55.736      72.831    -181.550
  O      -55.869      74.202    -181.892
  C      -56.901      72.367    -180.667
  O      -56.844      73.047    -179.391
  C      -58.241      72.739    -181.311
  O      -59.282      71.837    -180.945
  C      -58.533      74.105    -180.711
  O      -59.916      74.452    -180.759
  C      -57.978      73.928    -179.297
  N      -58.051      76.788    -175.081
  C      -58.705      75.602    -175.341
  N      -59.499      75.120    -174.357
  N      -58.601      74.949    -176.470
  C      -57.833      75.584    -177.390
  C      -57.157      76.775    -177.257
  C      -57.247      77.465    -175.990
  O      -56.705      78.532    -175.709
  N      -56.499      77.110    -178.416
  C      -56.782      76.129    -179.249
  N      -57.577      75.169    -178.668
  O      -53.973      73.830    -183.480
  O      -54.844      76.225    -183.198
  H      -60.217      74.325    -181.677
  H      -54.308      73.969    -184.382
  H      -58.153      77.241    -174.188
  H      -56.433      76.059    -180.274
  H      -58.724      73.454    -178.649
  H      -57.992      74.858    -181.293
  H      -59.745      75.671    -173.549
  H      -58.175      72.784    -182.398
  H      -60.199      74.428    -174.632
  H      -56.815      71.292    -180.461
  H      -54.789      72.722    -181.007
  H      -55.669      72.219    -182.453
  P      -60.186      71.230    -182.123
  C      -59.748      68.716    -181.512
  O      -60.675      69.775    -181.666
  O      -59.129      70.942    -183.291
  O      -61.283      72.138    -182.569
  H      -59.219      71.610    -183.998
  H      -60.265      67.831    -181.204
  H      -59.023      68.982    -180.772
  H      -59.256      68.535    -182.445

 6  7  8  9  10  11  12  13  14  15  26  29  33  34 0
 6-311+G(2d,p)
 ****
 36  38  39  40  41 0
 6-311+G(2d,p)
 ****
 1  2  3  4  5  16  17  18  19  20  21  22  23  24  25 0
 3-21G
 ****
 27  28  30  31  32  35  37  42  43  44  45  46  47 0
 3-21G
 ****
 48  49 0
 3-21G
 ****


