%nproc=1
%NoSave
%Mem=1900MB
#P OB98/GEN NMR

erre ene a

0 1
  C      -14.521     -77.834     189.471
  O      -14.336     -79.240     189.423
  P      -13.724     -80.028     190.680
  C      -11.405     -79.747     189.603
  O      -12.181     -79.592     190.785
  C      -10.070     -80.421     189.919
  O       -9.261     -79.508     190.700
  C      -10.214     -81.709     190.726
  O       -9.212     -82.636     190.298
  C       -9.902     -81.296     192.156
  O       -9.410     -82.405     192.922
  C       -8.887     -80.167     191.923
  N       -6.321     -78.286     195.964
  C       -6.008     -79.256     195.070
  N       -6.749     -79.723     194.039
  C       -7.903     -79.036     193.941
  C       -8.354     -78.024     194.774
  C       -7.506     -77.649     195.831
  N       -7.822     -76.651     196.729
  N       -9.606     -77.581     194.373
  C       -9.887     -78.305     193.310
  N       -8.885     -79.191     193.003
  O      -13.952     -81.501     190.675
  O      -14.387     -79.326     191.956
  H       -8.723     -82.842     192.386
  H      -14.592     -79.992     192.644
  H       -5.039     -79.722     195.206
  H      -10.801     -78.238     192.735
  H       -7.869     -80.555     191.807
  H      -10.811     -80.926     192.638
  H      -11.211     -82.158     190.632
  H       -9.539     -80.606     188.977
  H      -11.215     -78.756     189.181
  H       -7.102     -76.370     197.380
  H       -8.622     -76.063     196.529
  H      -11.971     -80.331     188.869
  P       -9.693     -84.165     190.138
  C       -8.778     -85.009     192.428
  O       -9.904     -84.684     191.639
  O       -8.777     -84.956     189.263
  O      -11.176     -83.967     189.551
  H      -11.548     -83.092     189.799
  H       -9.126     -85.379     193.400
  H       -8.169     -84.119     192.593
  H       -8.181     -85.788     191.944
  H      -14.937     -77.497     188.544
  H      -13.578     -77.356     189.634
  H      -15.188     -77.589     190.271

 3  4  5  6  7  8  9  10  11  12  22  25  29  30  31  32 0
 6-311+G(2d,p)
 ****
 33  36  37 0
 6-311+G(2d,p)
 ****
 1  2  13  14  15  16  17  18  19  20  21  23  24  26 0
 3-21G
 ****
 27  28  34  35  38  39  40  41  42  43  44  45  46  47  48 0
 3-21G
 ****


