%nproc=1
%NoSave
%Mem=1900MB
#P OB98/GEN NMR

erre ene a

0 1
  C      -10.317      -9.799      -5.309
  O       -9.340      -9.541      -6.296
  H      -11.173      -9.142      -5.482
  H       -9.911      -9.594      -4.315
  H      -10.652     -10.838      -5.367
  P       -8.010     -10.438      -6.246
  C       -7.506     -12.984      -6.393
  O       -8.496     -11.965      -6.319
  C       -7.826     -14.089      -5.391
  O       -7.769     -13.552      -4.050
  C       -9.223     -14.681      -5.536
  O       -9.293     -15.620      -6.594
  C       -9.427     -15.299      -4.160
  O       -8.825     -16.597      -4.071
  C       -8.690     -14.317      -3.241
  N      -12.404     -14.097       0.241
  C      -11.634     -15.117      -0.195
  N      -10.648     -15.088      -1.117
  C      -10.486     -13.843      -1.593
  C      -11.198     -12.708      -1.250
  C      -12.201     -12.865      -0.280
  N      -13.009     -11.834       0.138
  N      -10.770     -11.624      -1.991
  C       -9.809     -12.095      -2.760
  N       -9.601     -13.428      -2.550
  O       -7.521     -10.266      -4.730
  O       -6.949     -10.058      -7.223
  H       -9.137     -16.992      -3.234
  H       -6.859      -9.552      -4.679
  H      -11.839     -16.086       0.253
  H       -9.248     -11.517      -3.484
  H       -8.097     -14.831      -2.476
  H      -10.486     -15.417      -3.930
  H       -9.961     -13.881      -5.678
  H       -7.061     -14.870      -5.477
  H       -6.527     -12.555      -6.156
  H       -7.484     -13.382      -7.413
  H      -13.724     -12.025       0.821
  H      -12.937     -10.937      -0.322
  P      -10.675     -15.777      -7.386
  C      -12.115     -14.206      -8.876
  O      -11.136     -14.314      -7.855
  O      -11.719     -16.153      -6.234
  O      -10.656     -16.796      -8.476
  H      -11.889     -17.113      -6.228
  H      -12.312     -13.173      -9.073
  H      -13.016     -14.687      -8.558
  H      -11.755     -14.677      -9.767

 6  7  8  9  10  11  12  13  14  15  25  28  32  33  34  35 0
 6-311+G(2d,p)
 ****
 36  37  40 0
 6-311+G(2d,p)
 ****
 1  2  3  4  5  16  17  18  19  20  21  22  23  24 0
 3-21G
 ****
 26  27  29  30  31  38  39 41  42  43  44  45  46  47  48 0
 3-21G
 ****


