%nproc=1
%NoSave
%Mem=1900MB
#P OB98/GEN NMR

erre ene a

0 1
  C     -220.201    -136.197    -101.257
  O     -218.799    -136.067    -101.137
  H     -220.559    -135.458    -101.979
  H     -220.683    -136.002    -100.295
  H     -220.465    -137.195    -101.616
  P     -218.022    -137.040    -100.127
  C     -217.878    -134.972     -98.573
  O     -218.213    -136.345     -98.688
  C     -217.332    -134.675     -97.177
  O     -218.402    -134.452     -96.230
  C     -216.503    -135.800     -96.561
  O     -215.215    -135.938     -97.132
  C     -216.451    -135.322     -95.119
  O     -215.510    -134.241     -95.003
  C     -217.904    -134.834     -94.918
  N     -218.764    -135.853     -94.316
  C     -218.706    -135.981     -92.924
  O     -217.958    -135.269     -92.259
  N     -219.479    -136.943     -92.315
  C     -220.225    -137.721     -93.035
  N     -220.967    -138.656     -92.379
  C     -220.300    -137.634     -94.509
  C     -219.557    -136.690     -95.076
  O     -216.613    -137.380    -100.494
  O     -218.971    -138.322     -99.994
  H     -215.683    -133.632     -95.742
  H     -218.532    -138.963     -99.384
  H     -220.914    -138.331     -95.063
  H     -219.552    -136.569     -96.154
  H     -217.928    -133.933     -94.288
  H     -216.137    -136.102     -94.422
  H     -217.052    -136.751     -96.592
  H     -216.757    -133.741     -97.241
  H     -220.891    -138.695     -91.373
  H     -218.778    -134.382     -98.775
  H     -221.512    -139.359     -92.867
  H     -217.109    -134.711     -99.308
  P     -214.306    -137.152     -96.588
  C     -212.027    -136.075     -97.288
  O     -212.874    -136.519     -96.240
  O     -214.040    -138.019     -97.906
  O     -214.914    -137.956     -95.477
  H     -214.652    -138.782     -97.946
  H     -211.121    -135.685     -96.873
  H     -212.522    -135.308     -97.846
  H     -211.799    -136.896     -97.935

 6  7  8  9  10  11  12  13  14  15  16  26  30  31  32  33  35 0
 6-311+G(2d,p)
 ****
 37  38 0
 6-311+G(2d,p)
 ****
 1  2  3  4  5  17  18  19  20  21  22  23  24  25 0
 3-21G
 ****
 27  28  29  34  36  39  40  41  42  43  44  45  46 0
 3-21G
 ****


