%nproc=1
%NoSave
%Mem=1900MB
#P OB98/GEN NMR

erre ene a

0 1
  C      279.127     234.385    -223.470
  O      279.963     234.814    -224.528
  H      278.853     233.337    -223.649
  H      278.212     234.982    -223.427
  H      279.659     234.447    -222.519
  P      280.293     236.382    -224.640
  C      282.577     236.122    -223.452
  O      281.271     236.703    -223.404
  C      283.598     237.100    -224.027
  O      283.707     238.260    -223.173
  C      285.005     236.537    -224.119
  O      285.158     235.523    -225.089
  C      285.857     237.795    -224.204
  O      286.002     238.297    -225.523
  C      285.032     238.797    -223.356
  N      285.677     239.091    -222.078
  C      286.949     239.650    -222.152
  O      287.528     239.871    -223.217
  N      287.562     239.915    -220.959
  C      287.051     239.625    -219.722
  O      287.674     239.846    -218.686
  C      285.712     239.014    -219.709
  C      285.100     238.773    -220.869
  O      279.102     237.293    -224.718
  O      281.262     236.481    -225.906
  H      286.752     238.931    -225.513
  H      281.320     237.409    -226.235
  H      288.475     240.326    -220.996
  H      285.285     238.766    -218.737
  H      284.107     238.321    -220.877
  H      284.910     239.746    -223.894
  H      286.864     237.627    -223.816
  H      285.243     236.073    -223.155
  H      283.234     237.434    -225.010
  H      282.517     235.234    -224.099
  H      282.868     235.800    -222.443
  P      285.787     234.087    -224.771
  C      283.549     232.838    -224.380
  O      284.761     233.296    -223.820
  O      287.247     234.043    -224.461
  O      285.578     233.331    -226.183
  H      286.331     232.724    -226.313
  H      282.977     232.334    -223.629
  H      283.760     232.161    -225.181
  H      282.992     233.671    -224.754

 6  7  8  9  10  11  12  13  14  15  16  26  31  32  33  34  35 0
 6-311+G(2d,p)
 ****
 36  37 0
 6-311+G(2d,p)
 ****
 1  2  3  4  5  17  18  19  20  21  22  23  24  25 0
 3-21G
 ****
 27  28  29  30  38  39  40  41  42  43  44  45 0
 3-21G
 ****


