%nproc=1
%NoSave
%Mem=1900MB
#P OB98/GEN NMR

erre ene a

0 1
  C      124.102    -211.159     167.401
  O      124.302    -209.742     167.313
  P      124.220    -208.757     168.578
  C      126.678    -207.953     168.460
  O      125.690    -208.643     169.216
  C      128.085    -208.397     168.870
  O      128.168    -209.841     168.896
  C      129.201    -207.976     167.926
  O      129.501    -206.597     168.022
  C      130.334    -208.899     168.374
  O      131.036    -208.355     169.499
  C      129.573    -210.171     168.793
  N      129.784    -211.286     167.884
  C      130.830    -212.158     168.193
  O      131.574    -211.927     169.145
  N      131.016    -213.265     167.402
  C      130.293    -213.426     166.338
  N      130.510    -214.550     165.604
  C      129.271    -212.456     165.902
  C      129.069    -211.422     166.716
  O      123.166    -209.128     169.568
  O      123.953    -207.303     167.966
  H      123.492    -206.752     168.626
  H      131.825    -208.915     169.638
  H      128.719    -212.607     164.987
  H      128.325    -210.668     166.478
  H      129.872    -210.472     169.804
  H      131.071    -209.060     167.582
  H      128.916    -208.226     166.896
  H      128.279    -208.017     169.883
  H      131.212    -215.200     165.934
  H      126.576    -206.879     168.653
  H      129.986    -214.783     164.771
  H      126.507    -208.132     167.394
  P      128.584    -205.593     167.171
  C      127.165    -204.940     169.244
  O      127.179    -205.454     167.927
  O      128.230    -206.432     165.852
  O      129.242    -204.296     166.828
  H      128.242    -205.843     165.076
  H      126.197    -204.464     169.424
  H      127.957    -204.202     169.398
  H      127.292    -205.762     169.953
  H      124.207    -211.595     166.430
  H      123.120    -211.358     167.777
  H      124.830    -211.582     168.062

 3  4  5  6  7  8  9  10  11  12  13  24  27  28  29  30  32 0
 6-311+G(2d,p)
 ****
 34  35 0
 6-311+G(2d,p)
 ****
 1  2  14  15  16  17  18  19  20  21  22  23  25  26 0
 3-21G
 ****
 31  33  36  37  38  39  40  41  42  43  44  45  46 0
 3-21G
 ****


