%nproc=1
%NoSave
%Mem=1900MB
#P OB98/GEN NMR

erre ene a

0 1
  C     -208.888     146.331      -9.688
  O     -208.541     146.164      -8.327
  H     -209.181     147.374      -9.848
  H     -209.736     145.691      -9.942
  H     -208.037     146.103     -10.337
  P     -207.977     144.742      -7.845
  C     -210.230     144.381      -6.656
  O     -208.817     144.339      -6.530
  C     -210.876     144.763      -5.323
  O     -210.633     143.704      -4.364
  C     -210.331     146.069      -4.729
  O     -211.412     146.771      -4.110
  C     -209.357     145.596      -3.668
  O     -209.182     146.550      -2.621
  C     -210.001     144.293      -3.207
  N     -206.145     143.930       0.041
  C     -206.978     144.996      -0.239
  N     -206.734     146.148       0.419
  N     -207.962     144.940      -1.098
  C     -208.101     143.721      -1.679
  C     -207.342     142.592      -1.483
  C     -206.247     142.671      -0.540
  O     -205.475     141.759      -0.257
  N     -207.783     141.557      -2.275
  C     -208.803     142.068      -2.949
  N     -209.027     143.379      -2.628
  O     -206.493     144.664      -7.675
  O     -208.506     143.717      -8.950
  H     -208.686     146.102      -1.905
  H     -207.801     143.504      -9.588
  H     -205.397     144.034       0.706
  H     -209.396     141.534      -3.678
  H     -210.773     144.460      -2.437
  H     -208.374     145.406      -4.125
  H     -206.002     146.265       1.106
  H     -209.850     146.711      -5.475
  H     -207.342     146.940       0.245
  H     -211.961     144.822      -5.464
  H     -210.581     143.388      -6.961
  H     -210.508     145.107      -7.428
  P     -212.311     147.751      -5.009
  C     -210.742     149.697      -4.365
  O     -212.091     149.254      -4.480
  O     -213.738     147.340      -5.184
  O     -211.536     147.757      -6.413
  H     -212.182     147.900      -7.128
  H     -210.727     150.705      -4.006
  H     -210.269     149.653      -5.324
  H     -210.217     149.066      -3.679

 6  7  8  9  10  11  12  13  14  15  26  29  33  34 0
 6-311+G(2d,p)
 ****
 36  38  39  40  41 0
 6-311+G(2d,p)
 ****
 1  2  3  4  5  16  17  18  19  20  21  22  23  24  25 0
 3-21G
 ****
 27  28  30  31  32  35  37  42  43  44  45  46  47 0
 3-21G
 ****
 48  49 0
 3-21G
 ****


