%nproc=1
%NoSave
%Mem=1900MB
#P OB98/GEN NMR

erre ene a

0 1
  C     -301.442    -263.824    1043.433
  O     -301.380    -262.760    1042.522
  P     -302.668    -262.508    1041.583
  C     -303.156    -260.050    1042.335
  O     -303.580    -261.413    1042.330
  C     -303.983    -259.245    1041.349
  O     -305.395    -259.412    1041.595
  C     -303.727    -257.735    1041.384
  O     -302.497    -257.416    1040.766
  C     -304.964    -257.238    1040.658
  O     -304.798    -257.383    1039.237
  C     -306.046    -258.188    1041.168
  N     -310.436    -255.945    1042.557
  C     -309.981    -256.329    1041.364
  N     -308.791    -256.892    1041.062
  C     -308.053    -257.080    1042.172
  C     -308.390    -256.698    1043.479
  C     -309.642    -256.117    1043.641
  N     -310.132    -255.712    1044.879
  N     -307.375    -257.016    1044.344
  C     -306.451    -257.570    1043.611
  N     -306.803    -257.636    1042.284
  O     -303.503    -263.862    1041.752
  O     -302.361    -262.204    1040.151
  H     -304.030    -256.849    1038.985
  H     -303.972    -264.097    1040.926
  H     -310.648    -256.172    1040.500
  H     -305.492    -257.937    1043.952
  H     -306.768    -258.474    1040.392
  H     -305.175    -256.170    1040.860
  H     -303.719    -257.372    1042.430
  H     -303.748    -259.640    1040.332
  H     -302.100    -260.001    1042.060
  H     -310.976    -255.173    1044.893
  H     -309.487    -255.719    1045.664
  H     -303.260    -259.645    1043.366
  P     -301.335    -256.795    1041.718
  C     -300.187    -259.086    1041.557
  O     -300.679    -258.077    1042.411
  O     -302.202    -256.144    1042.902
  O     -300.386    -255.871    1041.020
  H     -302.884    -256.775    1043.236
  H     -299.716    -259.863    1042.153
  H     -299.446    -258.665    1040.872
  H     -301.009    -259.526    1040.968
  H     -300.527    -263.874    1043.986
  H     -301.588    -264.741    1042.901
  H     -302.258    -263.669    1044.108

 3  4  5  6  7  8  9  10  11  12  22  25  29  30  31  32 0
 6-311+G(2d,p)
 ****
 33  36  37 0
 6-311+G(2d,p)
 ****
 1  2  13  14  15  16  17  18  19  20  21  23  24  26 0
 3-21G
 ****
 27  28  34  35  38  39  40  41  42  43  44  45  46  47  48 0
 3-21G
 ****


