%nproc=1
%NoSave
%Mem=1900MB
#P OB98/GEN NMR

erre ene a

0 1
  C      188.560       7.768    -301.897
  O      189.435       8.626    -301.195
  P      190.597       8.024    -300.268
  C      191.733      10.337    -300.378
  O      191.256       9.292    -299.534
  C      192.191      11.538    -299.550
  O      191.055      12.250    -299.019
  C      193.052      11.174    -298.349
  O      194.372      10.867    -298.756
  C      192.925      12.432    -297.502
  O      193.836      13.451    -297.941
  C      191.464      12.856    -297.774
  N      190.569      12.498    -296.680
  C      190.650      13.301    -295.535
  O      191.464      14.222    -295.479
  N      189.841      13.006    -294.466
  C      189.040      11.985    -294.527
  N      188.273      11.738    -293.430
  C      188.949      11.098    -295.704
  C      189.734      11.408    -296.732
  O      191.555       7.113    -300.957
  O      189.782       7.313    -299.085
  H      193.685      14.222    -297.359
  H      189.368       6.469    -299.390
  H      188.275      10.253    -295.701
  H      189.731      10.807    -297.633
  H      191.401      13.943    -297.924
  H      193.140      12.242    -296.448
  H      192.604      10.327    -297.816
  H      192.740      12.218    -300.215
  H      188.390      12.353    -292.634
  H      190.918      10.645    -301.039
  H      187.646      10.953    -293.358
  H      192.553       9.957    -300.996
  P      195.339      10.049    -297.778
  C      197.169       9.004    -299.241
  O      196.816      10.087    -298.403
  O      194.851       8.695    -297.378
  O      195.467      11.003    -296.496
  H      195.383      10.462    -295.687
  H      198.028       9.300    -299.850
  H      196.342       8.728    -299.900
  H      197.450       8.145    -298.627
  H      187.859       8.353    -302.455
  H      188.033       7.149    -301.201
  H      189.124       7.153    -302.566

 3  4  5  6  7  8  9  10  11  12  13  23  27  28  29  30  32 0
 6-311+G(2d,p)
 ****
 34  35 0
 6-311+G(2d,p)
 ****
 1  2  14  15  16  17  18  19  20  21  22  24  25  26 0
 3-21G
 ****
 31  33  36  37  38  39  40  41  42  43  44  45  46 0
 3-21G
 ****


