%nproc=1
%NoSave
%Mem=1900MB
#P OB98/GEN NMR

erre ene a

0 1
  C     -505.791     -13.577    -271.778
  O     -506.573     -13.573    -270.598
  P     -506.011     -12.808    -269.308
  C     -508.176     -11.462    -268.665
  O     -506.861     -11.447    -269.180
  C     -508.841     -10.098    -268.862
  O     -508.051      -9.085    -268.176
  C     -508.972      -9.661    -270.329
  O     -510.196      -8.927    -270.443
  C     -507.777      -8.734    -270.512
  O     -507.942      -7.838    -271.595
  C     -507.724      -8.062    -269.136
  N     -506.426      -7.466    -268.828
  C     -506.388      -6.099    -268.560
  O     -507.373      -5.361    -268.594
  N     -505.147      -5.582    -268.283
  C     -503.965      -6.266    -268.308
  O     -502.881      -5.752    -268.064
  C     -504.064      -7.696    -268.641
  C     -505.268      -8.220    -268.871
  O     -504.578     -12.324    -269.834
  O     -505.984     -13.644    -268.076
  H     -504.584     -12.080    -270.773
  H     -508.851      -7.486    -271.564
  H     -505.099      -4.607    -268.051
  H     -503.146      -8.272    -268.685
  H     -505.367      -9.272    -269.117
  H     -508.506      -7.295    -269.062
  H     -506.881      -9.335    -270.695
  H     -508.976     -10.506    -271.015
  H     -509.828     -10.122    -268.377
  H     -508.146     -11.694    -267.592
  H     -508.750     -12.252    -269.161
  P     -511.232      -9.355    -271.606
  C     -512.873     -10.747    -270.121
  O     -511.909     -10.730    -271.151
  O     -510.198      -9.824    -272.742
  O     -512.145      -8.268    -272.066
  H     -509.517     -10.424    -272.404
  H     -513.446     -11.677    -270.195
  H     -513.565      -9.906    -270.205
  H     -512.372     -10.718    -269.146
  H     -506.301     -14.125    -272.542
  H     -504.846     -14.038    -271.578
  H     -505.634     -12.570    -272.105

 3  4  5  6  7  8  9  10  11  12  13  24  28  29  30  31  32 0
 6-311+G(2d,p)
 ****
 33  34 0
 6-311+G(2d,p)
 ****
 1  2  14  15  16  17  18  19  20  21  22  23  25  26  27 0
 3-21G
 ****
 35  36  37  38  39  40  41  42  43  44  45 0
 3-21G
 ****


