%nproc=1
%NoSave
%Mem=1900MB
#P OB98/GEN NMR

erre ene a

0 1
  C       57.761     265.303    -146.287
  O       57.889     264.024    -146.873
  H       57.864     265.203    -145.203
  H       56.783     265.739    -146.508
  H       58.553     265.964    -146.653
  P       57.522     263.865    -148.429
  C       59.344     262.254    -149.299
  O       58.003     262.385    -148.835
  C       59.650     260.805    -149.688
  O       59.631     259.962    -148.515
  C       58.627     260.193    -150.635
  O       58.647     260.741    -151.936
  C       58.849     258.702    -150.441
  O       59.884     258.171    -151.263
  C       59.276     258.633    -148.952
  N       58.241     258.043    -148.112
  C       58.508     256.766    -147.630
  O       59.534     256.139    -147.894
  N       57.532     256.204    -146.856
  C       56.319     256.762    -146.570
  O       55.466     256.189    -145.902
  C       56.083     258.102    -147.130
  C       57.039     258.675    -147.867
  O       58.046     264.939    -149.334
  O       55.928     263.741    -148.433
  H       60.730     258.354    -150.812
  H       55.561     263.906    -149.334
  H       57.712     255.284    -146.487
  H       55.132     258.575    -146.926
  H       56.889     259.663    -148.291
  H       60.182     258.020    -148.848
  H       57.944     258.130    -150.657
  H       57.627     260.408    -150.235
  H       60.658     260.767    -150.117
  H       60.011     262.553    -148.485
  H       59.506     262.920    -150.153
  P       57.327     261.041    -152.783
  C       58.302     262.870    -154.346
  O       57.766     261.557    -154.240
  O       56.220     261.756    -152.075
  O       56.805     259.545    -153.098
  H       55.828     259.568    -153.103
  H       58.547     263.074    -155.367
  H       59.184     262.945    -153.746
  H       57.577     263.580    -154.005

 6  7  8  9  10  11  12  13  14  15  16  26  31  32  33  34  35 0
 6-311+G(2d,p)
 ****
 36  37 0
 6-311+G(2d,p)
 ****
 1  2  3  4  5  17  18  19  20  21  22  23  24  25 0
 3-21G
 ****
 27  28  29  30  38  39  40  41  42  43  44  45 0
 3-21G
 ****


