%nproc=1
%NoSave
%Mem=1900MB
#P OB98/GEN NMR

erre ene a

0 1
  C      104.548    -386.814    -889.061
  O      105.752    -387.229    -888.449
  H      104.488    -385.721    -889.015
  H      103.693    -387.233    -888.523
  H      104.517    -387.127    -890.107
  P      106.079    -388.800    -888.489
  C      107.477    -388.569    -890.658
  O      106.354    -389.168    -890.031
  C      108.221    -389.599    -891.516
  O      109.035    -390.442    -890.644
  C      107.301    -390.527    -892.328
  O      107.954    -390.812    -893.574
  C      107.288    -391.798    -891.498
  O      106.919    -392.949    -892.261
  C      108.730    -391.813    -890.994
  N      108.699    -396.643    -889.601
  C      108.538    -396.071    -890.844
  N      108.344    -396.912    -891.881
  N      108.576    -394.784    -891.056
  C      108.813    -394.061    -889.929
  C      108.979    -394.507    -888.646
  C      108.913    -395.939    -888.417
  O      109.024    -396.502    -887.340
  N      109.176    -393.457    -887.781
  C      109.123    -392.384    -888.548
  N      108.905    -392.693    -889.857
  O      104.655    -389.463    -888.186
  O      107.125    -389.260    -887.526
  H      106.877    -393.712    -891.648
  H      104.561    -389.644    -887.234
  H      108.650    -397.641    -889.488
  H      109.234    -391.360    -888.202
  H      109.440    -392.131    -891.760
  H      106.581    -391.701    -890.664
  H      108.348    -397.918    -891.801
  H      106.302    -390.121    -892.517
  H      108.268    -396.510    -892.814
  H      108.919    -389.064    -892.167
  H      108.155    -388.189    -889.890
  H      107.145    -387.734    -891.282
  P      107.329    -390.176    -894.908
  C      109.564    -389.337    -895.956
  O      108.295    -388.997    -895.397
  O      106.050    -389.386    -894.358
  O      106.956    -391.181    -895.951
  H      105.376    -389.325    -895.065
  H      110.084    -388.443    -896.231
  H      109.420    -389.947    -896.824
  H      110.139    -389.876    -895.233

 6  7  8  9  10  11  12  13  14  15  26  29  33  34 0
 6-311+G(2d,p)
 ****
 36  38  39  40  41 0
 6-311+G(2d,p)
 ****
 1  2  3  4  5  16  17  18  19  20  21  22  23  24  25 0
 3-21G
 ****
 27  28  30  31  32  35  37  42  43  44  45  46  47 0
 3-21G
 ****
 48  49 0
 3-21G
 ****


