%nproc=1
%NoSave
%Mem=1900MB
#P OB98/GEN NMR

erre ene a

0 1
  C     -242.587     -32.831    -105.314
  O     -242.789     -32.523    -106.678
  H     -242.963     -33.843    -105.124
  H     -243.137     -32.132    -104.680
  H     -241.523     -32.800    -105.062
  P     -242.205     -31.144    -107.256
  C     -240.129     -32.260    -108.301
  O     -240.614     -31.320    -107.354
  C     -239.239     -31.553    -109.323
  O     -238.127     -30.909    -108.659
  C     -238.619     -32.491    -110.354
  O     -239.575     -32.883    -111.320
  C     -237.482     -31.624    -110.877
  O     -237.964     -30.658    -111.823
  C     -237.009     -30.921    -109.579
  N     -235.836     -31.571    -108.977
  C     -234.599     -31.187    -109.484
  O     -234.462     -30.359    -110.388
  N     -233.514     -31.827    -108.948
  C     -233.554     -32.849    -108.041
  O     -232.581     -33.541    -107.755
  C     -234.883     -33.158    -107.488
  C     -235.951     -32.524    -107.989
  O     -242.666     -29.904    -106.564
  O     -242.657     -31.158    -108.795
  H     -243.441     -30.586    -108.905
  H     -237.254     -29.999    -111.934
  H     -232.612     -31.590    -109.341
  H     -234.953     -33.920    -106.719
  H     -236.945     -32.757    -107.615
  H     -236.753     -29.874    -109.782
  H     -236.709     -32.209    -111.381
  H     -238.192     -33.371    -109.852
  H     -239.834     -30.775    -109.820
  H     -240.990     -32.707    -108.814
  H     -239.573     -33.048    -107.778
  P     -239.407     -34.239    -112.154
  C     -240.302     -35.657    -110.211
  O     -239.218     -35.439    -111.108
  O     -238.384     -34.192    -113.239
  O     -240.869     -34.511    -112.757
  H     -240.797     -34.641    -113.724
  H     -240.069     -36.476    -109.563
  H     -241.186     -35.884    -110.769
  H     -240.465     -34.775    -109.627

 6  7  8  9  10  11  12  13  14  15  16  27  31  32  33  34  35 0
 6-311+G(2d,p)
 ****
 36  37 0
 6-311+G(2d,p)
 ****
 1  2  3  4  5  17  18  19  20  21  22  23  24  25 0
 3-21G
 ****
 26  28  29  30  38  39  40  41  42  43  44  45 0
 3-21G
 ****


