%nproc=1
%NoSave
%Mem=1900MB
#P OB98/GEN NMR

erre ene a

0 1
  C     -964.310    -638.739    -161.632
  O     -964.994    -637.530    -162.024
  P     -964.468    -636.142    -161.421
  C     -963.923    -635.032    -163.702
  O     -964.691    -634.994    -162.507
  C     -964.651    -634.307    -164.841
  O     -965.757    -635.065    -165.348
  C     -965.243    -632.958    -164.409
  O     -964.273    -631.922    -164.423
  C     -966.270    -632.727    -165.517
  O     -965.604    -632.228    -166.689
  C     -966.796    -634.148    -165.767
  N     -971.885    -634.559    -166.150
  C     -970.941    -634.183    -167.059
  N     -969.601    -634.084    -166.867
  C     -969.271    -634.422    -165.619
  C     -970.129    -634.817    -164.594
  C     -971.495    -634.866    -164.901
  N     -972.454    -635.244    -163.983
  N     -969.419    -635.072    -163.436
  C     -968.157    -634.857    -163.752
  N     -968.022    -634.462    -165.059
  O     -962.880    -636.324    -161.394
  O     -965.002    -635.847    -160.055
  H     -964.823    -632.800    -166.840
  H     -962.503    -635.870    -160.623
  H     -971.302    -633.941    -168.044
  H     -967.321    -634.976    -163.089
  H     -966.984    -634.333    -166.840
  H     -967.025    -631.993    -165.242
  H     -965.752    -633.038    -163.448
  H     -963.935    -634.137    -165.655
  H     -963.731    -636.061    -163.996
  H     -973.411    -635.294    -164.285
  H     -972.163    -635.512    -163.053
  H     -962.941    -634.570    -163.503
  P     -964.711    -630.492    -163.836
  C     -962.976    -630.547    -161.904
  O     -963.419    -629.913    -163.082
  O     -965.705    -630.886    -162.640
  O     -965.356    -629.596    -164.821
  H     -966.386    -630.182    -162.517
  H     -961.942    -630.229    -161.704
  H     -962.991    -631.629    -162.002
  H     -963.608    -630.250    -161.060
  H     -964.769    -639.579    -162.110
  H     -964.371    -638.855    -160.570
  H     -963.283    -638.679    -161.926

 3  4  5  6  7  8  9  10  11  12  22  25  29  30  31  32 0
 6-311+G(2d,p)
 ****
 33  36  37 0
 6-311+G(2d,p)
 ****
 1  2  13  14  15  16  17  18  19  20  21  23  24  26 0
 3-21G
 ****
 27  28  34  35  38  39  40  41  42  43  44  45  46  47  48 0
 3-21G
 ****


