%nproc=1
%NoSave
%Mem=1900MB
#P OB98/GEN NMR

erre ene a

0 1
  C      350.919    -218.050    -376.962
  O      352.246    -218.251    -376.497
  P      353.085    -216.951    -376.060
  C      353.640    -214.729    -377.284
  O      353.307    -216.107    -377.407
  C      353.230    -213.965    -378.536
  O      351.847    -214.237    -378.856
  C      353.326    -212.452    -378.418
  O      354.647    -211.985    -378.631
  C      352.421    -212.010    -379.555
  O      353.118    -212.115    -380.810
  C      351.297    -213.050    -379.485
  N      347.054    -210.208    -379.664
  C      348.042    -210.404    -380.564
  N      349.149    -211.169    -380.436
  C      349.194    -211.737    -379.221
  C      348.278    -211.595    -378.193
  C      347.158    -210.795    -378.448
  N      346.129    -210.617    -377.547
  N      348.666    -212.327    -377.088
  C      349.793    -212.908    -377.448
  N      350.148    -212.591    -378.731
  O      354.541    -217.551    -375.759
  O      352.531    -216.205    -374.896
  H      353.913    -211.554    -380.739
  H      355.024    -216.958    -375.153
  H      347.927    -209.885    -381.514
  H      350.376    -213.568    -376.824
  H      350.940    -213.347    -380.478
  H      352.095    -210.972    -379.455
  H      352.924    -212.100    -377.465
  H      353.843    -214.328    -379.370
  H      354.720    -214.638    -377.148
  H      345.282    -210.187    -377.875
  H      346.113    -211.217    -376.728
  H      353.141    -214.317    -376.401
  P      354.979    -210.490    -378.146
  C      353.728    -208.250    -378.565
  O      354.062    -209.539    -379.047
  O      356.462    -210.244    -378.700
  O      354.886    -210.297    -376.667
  H      356.917    -209.574    -378.160
  H      353.380    -207.641    -379.405
  H      354.591    -207.764    -378.111
  H      352.920    -208.336    -377.829
  H      350.483    -218.994    -377.216
  H      350.936    -217.421    -377.827
  H      350.338    -217.584    -376.193

 3  4  5  6  7  8  9  10  11  12  22  25  29  30  31  32 0
 6-311+G(2d,p)
 ****
 33  36  37 0
 6-311+G(2d,p)
 ****
 1  2  13  14  15  16  17  18  19  20  21  23  24  26 0
 3-21G
 ****
 27  28  34  35  38  39  40  41  42  43  44  45  46  47  48 0
 3-21G
 ****


