%nproc=1
%NoSave
%Mem=1900MB
#P OB98/GEN NMR

erre ene a

0 1
  C     -529.585     361.770     262.823
  O     -530.381     360.599     262.853
  H     -528.537     361.474     262.730
  H     -529.712     362.350     263.744
  H     -529.854     362.382     261.959
  P     -531.931     360.747     263.263
  C     -532.394     358.386     262.326
  O     -532.460     359.244     263.468
  C     -532.628     356.925     262.715
  O     -531.542     356.437     263.533
  C     -533.886     356.698     263.544
  O     -535.095     356.938     262.871
  C     -533.614     355.318     264.138
  O     -533.952     354.268     263.232
  C     -532.082     355.368     264.347
  N     -531.713     355.527     265.746
  C     -532.074     354.483     266.599
  O     -532.685     353.482     266.221
  N     -531.736     354.641     267.914
  C     -531.126     355.748     268.460
  O     -530.873     355.826     269.654
  C     -530.812     356.824     267.524
  C     -531.107     356.677     266.224
  O     -532.769     361.573     262.329
  O     -531.878     361.320     264.759
  H     -533.619     353.432     263.625
  H     -532.758     361.684     265.029
  H     -531.969     353.895     268.541
  H     -530.338     357.721     267.923
  H     -530.881     357.466     265.514
  H     -531.616     354.440     263.979
  H     -534.174     355.149     265.055
  H     -533.862     357.402     264.391
  H     -532.652     356.325     261.795
  H     -531.394     358.491     261.891
  H     -533.139     358.706     261.582
  P     -536.384     357.584     263.562
  C     -537.272     359.350     261.843
  O     -537.401     358.056     262.409
  O     -536.127     358.527     264.691
  O     -537.126     356.283     264.164
  H     -537.554     356.561     264.999
  H     -538.027     359.490     261.098
  H     -536.305     359.448     261.395
  H     -537.386     360.088     262.610

 6  7  8  9  10  11  12  13  14  15  16  26  31  32  33  34  35 0
 6-311+G(2d,p)
 ****
 36  37 0
 6-311+G(2d,p)
 ****
 1  2  3  4  5  17  18  19  20  21  22  23  24  25 0
 3-21G
 ****
 27  28  29  30  38  39  40  41  42  43  44  45 0
 3-21G
 ****


