%nproc=1
%NoSave
%Mem=1900MB
#P OB98/GEN NMR

erre ene a

0 1
  C      313.438     127.580     440.618
  O      313.887     126.339     441.136
  P      314.741     125.325     440.231
  C      314.150     123.577     438.442
  O      313.671     124.645     439.252
  C      312.980     122.745     437.925
  O      312.003     123.644     437.346
  C      313.310     121.747     436.815
  O      313.809     120.501     437.273
  C      311.930     121.542     436.202
  O      311.164     120.639     437.019
  C      311.335     122.952     436.264
  N      310.532     122.924     431.210
  C      310.196     122.047     432.186
  N      310.463     122.117     433.506
  C      311.115     123.256     433.798
  C      311.520     124.244     432.915
  C      311.201     124.046     431.561
  N      311.523     124.950     430.572
  N      312.182     125.255     433.586
  C      312.162     124.885     434.849
  N      311.520     123.690     435.027
  O      315.605     124.388     441.003
  O      315.573     126.274     439.252
  H      311.505     119.740     436.847
  H      316.311     125.774     438.850
  H      309.642     121.171     431.859
  H      312.599     125.445     435.662
  H      310.262     122.945     436.494
  H      311.974     121.107     435.198
  H      313.975     122.189     436.064
  H      312.511     122.242     438.775
  H      314.797     122.944     439.058
  H      311.142     124.790     429.655
  H      311.877     125.857     430.854
  H      314.744     123.979     437.619
  P      315.038     119.861     436.458
  C      315.512     119.513     433.908
  O      314.608     119.911     434.914
  O      315.485     118.530     436.957
  O      316.164     120.994     436.567
  H      315.966     121.818     436.092
  H      314.980     119.467     432.956
  H      315.926     118.523     434.124
  H      316.324     120.241     433.824
  H      312.891     128.105     441.373
  H      312.804     127.406     439.774
  H      314.281     128.166     440.316

 3  4  5  6  7  8  9  10  11  12  22  25  29  30  31  32 0
 6-311+G(2d,p)
 ****
 33  36  37 0
 6-311+G(2d,p)
 ****
 1  2  13  14  15  16  17  18  19  20  21  23  24  26 0
 3-21G
 ****
 27  28  34  35  38  39  40  41  42  43  44  45  46  47  48 0
 3-21G
 ****


