%nproc=1
%NoSave
%Mem=1900MB
#P OB98/GEN NMR

erre ene a

0 1
  C      -37.319      12.823     -26.188
  O      -36.578      13.012     -27.376
  H      -38.366      12.654     -26.451
  H      -37.252      13.711     -25.554
  H      -36.944      11.950     -25.647
  P      -35.026      13.388     -27.200
  C      -34.031      15.274     -25.697
  O      -35.067      14.871     -26.581
  C      -34.479      16.486     -24.888
  O      -35.597      16.146     -24.037
  C      -33.416      17.048     -23.948
  O      -32.436      17.828     -24.609
  C      -34.291      17.891     -23.039
  O      -34.689      19.091     -23.728
  C      -35.491      16.944     -22.826
  N      -35.338      16.080     -21.653
  C      -34.937      16.701     -20.464
  O      -34.726      17.911     -20.428
  N      -34.748      15.926     -19.345
  C      -34.961      14.648     -19.399
  N      -34.755      13.933     -18.260
  C      -35.396      13.955     -20.624
  C      -35.564      14.721     -21.700
  O      -34.534      13.649     -28.700
  O      -34.197      12.411     -26.437
  H      -35.257      19.590     -23.113
  H      -33.623      14.032     -28.695
  H      -35.549      12.885     -20.624
  H      -35.884      14.282     -22.638
  H      -36.425      17.509     -22.724
  H      -33.790      18.204     -22.123
  H      -32.947      16.256     -23.353
  H      -34.827      17.249     -25.595
  H      -34.399      14.428     -17.452
  H      -33.149      15.525     -26.295
  H      -34.748      12.922     -18.239
  H      -33.779      14.456     -25.016
  P      -31.098      18.177     -23.793
  C      -30.644      19.160     -21.424
  O      -31.543      19.044     -22.520
  O      -30.366      19.244     -24.730
  O      -30.222      17.002     -23.489
  H      -29.395      19.150     -24.674
  H      -31.087      19.766     -20.662
  H      -29.734      19.614     -21.756
  H      -30.435      18.188     -21.030

 6  7  8  9  10  11  12  13  14  15  16  26  30  31  32  33  35 0
 6-311+G(2d,p)
 ****
 37  38 0
 6-311+G(2d,p)
 ****
 1  2  3  4  5  17  18  19  20  21  22  23  24  25 0
 3-21G
 ****
 27  28  29  34  36  39  40  41  42  43  44  45  46 0
 3-21G
 ****


