%nproc=1
%NoSave
%Mem=1900MB
#P OB98/GEN NMR

erre ene a

0 1
  C      474.217    -646.294     202.631
  O      474.090    -647.670     202.928
  P      474.521    -648.777     201.852
  C      472.109    -648.682     200.959
  O      473.171    -649.519     201.410
  C      471.206    -649.451     199.996
  O      471.921    -649.815     198.790
  C      470.700    -650.773     200.548
  O      469.813    -650.726     201.645
  C      470.190    -651.446     199.280
  O      468.890    -650.976     198.923
  C      471.242    -650.975     198.243
  N      472.183    -652.036     197.892
  C      471.951    -652.668     196.675
  O      471.029    -652.381     195.917
  N      472.815    -653.689     196.362
  C      473.822    -654.153     197.153
  O      474.533    -655.098     196.829
  C      474.010    -653.456     198.433
  C      473.193    -652.443     198.737
  O      475.620    -649.692     202.286
  O      474.875    -647.909     200.552
  H      468.870    -650.015     199.085
  H      474.139    -647.371     200.208
  H      472.659    -654.172     195.492
  H      474.814    -653.790     199.070
  H      473.308    -651.911     199.678
  H      470.746    -650.642     197.319
  H      470.125    -652.534     199.394
  H      471.562    -651.353     200.891
  H      470.385    -648.792     199.698
  H      472.536    -647.823     200.437
  H      471.545    -648.308     201.818
  P      470.108    -651.445     203.048
  C      469.301    -653.830     202.410
  O      469.089    -652.679     203.198
  O      470.294    -650.555     204.228
  O      471.488    -652.203     202.731
  H      472.016    -652.249     203.560
  H      468.499    -654.541     202.612
  H      470.254    -654.300     202.670
  H      469.285    -653.572     201.352
  H      473.881    -645.716     203.467
  H      473.623    -646.058     201.773
  H      475.243    -646.066     202.429

 3  4  5  6  7  8  9  10  11  12  13  23  28  29  30  31  32 0
 6-311+G(2d,p)
 ****
 33  34 0
 6-311+G(2d,p)
 ****
 1  2  14  15  16  17  18  19  20  21  22  24  25  26  27 0
 3-21G
 ****
 35  36  37  38  39  40  41  42  43  44  45 0
 3-21G
 ****


