%nproc=1
%NoSave
%Mem=1900MB
#P OB98/GEN NMR

erre ene a

0 1
  C      567.236    -339.736    -720.788
  O      566.738    -340.845    -721.507
  H      568.073    -339.306    -721.342
  H      567.587    -340.059    -719.805
  H      566.458    -338.976    -720.673
  P      565.437    -341.572    -720.916
  C      564.926    -342.047    -723.413
  O      564.879    -342.532    -722.073
  C      564.245    -343.024    -724.365
  O      564.928    -344.314    -724.290
  C      562.759    -343.270    -724.060
  O      562.075    -343.462    -725.309
  C      562.778    -344.606    -723.324
  O      561.519    -345.277    -723.371
  C      563.903    -345.311    -724.081
  N      563.040    -350.159    -723.057
  C      562.359    -349.286    -723.881
  N      561.286    -349.769    -724.536
  N      562.710    -348.035    -724.049
  C      563.828    -347.688    -723.359
  C      564.579    -348.460    -722.512
  C      564.166    -349.835    -722.309
  O      564.711    -350.655    -721.576
  N      565.615    -347.733    -721.980
  C      565.486    -346.532    -722.509
  N      564.410    -346.452    -723.354
  O      564.366    -340.388    -720.858
  O      565.620    -342.227    -719.583
  H      561.649    -346.178    -723.004
  H      564.369    -339.969    -719.976
  H      562.717    -351.112    -722.954
  H      566.138    -345.688    -722.314
  H      563.584    -345.678    -725.065
  H      563.047    -344.449    -722.276
  H      560.983    -350.734    -724.491
  H      562.273    -342.474    -723.491
  H      560.801    -349.153    -725.180
  H      564.379    -342.661    -725.392
  H      565.978    -341.924    -723.710
  H      564.431    -341.072    -723.456
  P      561.524    -342.165    -726.070
  C      561.784    -343.081    -728.487
  O      560.905    -342.634    -727.470
  O      562.867    -341.409    -726.510
  O      560.644    -341.287    -725.239
  H      562.700    -340.450    -726.578
  H      561.218    -343.356    -729.352
  H      562.334    -343.929    -728.136
  H      562.464    -342.295    -728.741

 6  7  8  9  10  11  12  13  14  15  26  29  33  34 0
 6-311+G(2d,p)
 ****
 36  38  39  40  41 0
 6-311+G(2d,p)
 ****
 1  2  3  4  5  16  17  18  19  20  21  22  23  24  25 0
 3-21G
 ****
 27  28  30  31  32  35  37  42  43  44  45  46  47 0
 3-21G
 ****
 48  49 0
 3-21G
 ****


