%nproc=1
%NoSave
%Mem=1900MB
#P OB98/GEN NMR

erre ene a

0 1
  C       30.624     154.430    -417.615
  O       30.673     153.321    -416.738
  H       29.678     154.400    -418.167
  H       31.444     154.393    -418.337
  H       30.672     155.363    -417.050
  P       32.031     153.054    -415.929
  C       31.217     153.088    -413.473
  O       31.592     152.290    -414.592
  C       30.428     152.249    -412.473
  O       29.139     151.904    -413.018
  C       31.105     150.928    -412.134
  O       32.187     151.129    -411.245
  C       29.934     150.146    -411.568
  O       29.667     150.510    -410.209
  C       28.783     150.600    -412.499
  N       28.527     149.656    -413.582
  C       27.821     148.498    -413.234
  O       27.449     148.321    -412.074
  N       27.578     147.563    -414.210
  C       27.984     147.772    -415.423
  N       27.711     146.806    -416.342
  C       28.718     148.982    -415.835
  C       28.954     149.874    -414.873
  O       32.924     154.236    -415.701
  O       32.756     151.907    -416.780
  H       30.502     150.362    -409.723
  H       33.330     152.301    -417.462
  H       29.029     149.118    -416.860
  H       29.487     150.795    -415.089
  H       27.856     150.728    -411.926
  H       30.121     149.073    -411.595
  H       31.438     150.431    -413.047
  H       30.261     152.854    -411.570
  H       27.211     145.985    -416.012
  H       30.600     153.907    -413.854
  H       27.897     146.896    -417.327
  H       32.102     153.517    -412.990
  P       33.617     150.464    -411.544
  C       34.733     152.347    -410.176
  O       34.565     150.938    -410.336
  O       34.156     150.696    -412.913
  O       33.370     148.915    -411.212
  H       32.838     148.475    -411.921
  H       35.380     152.537    -409.346
  H       33.781     152.802    -409.997
  H       35.163     152.758    -411.065

 6  7  8  9  10  11  12  13  14  15  16  26  30  31  32  33  35 0
 6-311+G(2d,p)
 ****
 37  38 0
 6-311+G(2d,p)
 ****
 1  2  3  4  5  17  18  19  20  21  22  23  24  25 0
 3-21G
 ****
 27  28  29  34  36  39  40  41  42  43  44  45  46 0
 3-21G
 ****


