%nproc=1
%NoSave
%Mem=1900MB
#P OB98/GEN NMR

erre ene a

0 1
  C      340.505    -564.893    1095.117
  O      339.721    -563.975    1095.877
  P      340.391    -563.471    1097.262
  C      339.581    -560.992    1097.292
  O      340.679    -561.899    1097.142
  C      339.584    -559.959    1096.149
  O      339.502    -560.553    1094.843
  C      338.407    -558.952    1096.242
  O      338.683    -557.963    1097.210
  C      338.392    -558.437    1094.778
  O      339.335    -557.364    1094.619
  C      338.792    -559.635    1093.983
  N      336.853    -561.176    1089.552
  C      337.939    -560.368    1089.787
  N      338.612    -559.921    1088.701
  N      338.321    -560.034    1090.994
  C      337.559    -560.555    1091.965
  C      336.475    -561.403    1091.833
  C      336.074    -561.807    1090.508
  O      335.129    -562.511    1090.231
  N      336.001    -561.798    1093.074
  C      336.692    -561.068    1093.962
  N      337.693    -560.360    1093.336
  O      341.835    -564.160    1097.258
  O      339.591    -563.868    1098.472
  H      339.414    -557.129    1093.688
  H      341.869    -564.857    1097.943
  H      336.607    -561.419    1088.591
  H      336.496    -561.052    1094.987
  H      339.497    -559.354    1093.169
  H      337.406    -558.020    1094.568
  H      338.385    -560.111    1087.769
  H      337.483    -559.497    1096.452
  H      339.430    -559.289    1088.876
  H      340.540    -559.415    1096.200
  H      339.635    -560.485    1098.257
  H      338.635    -561.584    1097.265
  P      338.751    -558.406    1098.748
  C      340.834    -557.277    1099.865
  O      340.325    -558.386    1099.199
  O      338.349    -559.956    1098.696
  O      337.824    -557.648    1099.633
  H      337.713    -560.151    1099.368
  H      341.615    -557.611    1100.517
  H      340.041    -556.799    1100.502
  H      341.203    -556.581    1099.129
  H      339.976    -565.162    1094.227
  H      340.692    -565.771    1095.700
  H      341.436    -564.435    1094.854

 3  4  5  6  7  8  9  10  11  12  23  26  30  31 0
 6-311+G(2d,p)
 ****
 33  35  36  37  38 0
 6-311+G(2d,p)
 ****
 1  2  13  14  15  16  17  18  19  20  21  22  24  25 0
 3-21G
 ****
 27  28  29  32  34  39  40  41  42  43  44  45  46  47  48  49 0
 3-21G
 ****


