%nproc=1
%NoSave
%Mem=1900MB
#P OB98/GEN NMR

erre ene a

0 1
  C     -537.329    -124.485    1045.933
  O     -536.749    -124.154    1044.648
  P     -537.509    -123.208    1043.599
  C     -535.284    -122.225    1042.715
  O     -536.497    -122.894    1042.375
  C     -534.529    -121.753    1041.462
  O     -534.063    -122.896    1040.708
  C     -535.349    -120.922    1040.501
  O     -535.467    -119.584    1040.972
  C     -534.563    -121.067    1039.200
  O     -533.433    -120.187    1039.186
  C     -534.100    -122.536    1039.298
  N     -534.379    -125.574    1035.189
  C     -533.387    -124.798    1035.675
  N     -533.387    -124.014    1036.778
  C     -534.573    -124.098    1037.413
  C     -535.673    -124.846    1037.034
  C     -535.572    -125.612    1035.855
  N     -536.573    -126.379    1035.348
  N     -536.723    -124.653    1037.916
  C     -536.245    -123.830    1038.842
  N     -534.940    -123.480    1038.573
  O     -538.141    -121.995    1044.200
  O     -538.610    -124.149    1042.922
  H     -532.825    -120.468    1039.880
  H     -539.371    -123.599    1042.630
  H     -532.465    -124.802    1035.102
  H     -536.789    -123.469    1039.695
  H     -533.076    -122.661    1038.917
  H     -535.161    -120.854    1038.314
  H     -536.349    -121.365    1040.373
  H     -533.642    -121.205    1041.802
  H     -534.652    -122.910    1043.287
  H     -536.430    -126.877    1034.489
  H     -537.477    -126.363    1035.829
  H     -535.519    -121.369    1043.343
  P     -536.900    -118.954    1041.314
  C     -536.532    -118.218    1043.742
  O     -536.674    -117.802    1042.402
  O     -537.965    -119.962    1041.678
  O     -537.307    -118.140    1039.991
  H     -538.270    -118.152    1039.885
  H     -537.528    -118.400    1044.167
  H     -536.052    -117.398    1044.317
  H     -535.914    -119.111    1043.827
  H     -536.661    -125.123    1046.472
  H     -538.261    -124.989    1045.784
  H     -537.494    -123.588    1046.492

 3  4  5  6  7  8  9  10  11  12  22  25  29  30  31  32 0
 6-311+G(2d,p)
 ****
 33  36  37 0
 6-311+G(2d,p)
 ****
 1  2  13  14  15  16  17  18  19  20  21  23  24  26 0
 3-21G
 ****
 27  28  34  35  38  39  40  41  42  43  44  45  46  47  48 0
 3-21G
 ****


