%nproc=1
%NoSave
%Mem=1900MB
#P OB98/GEN NMR

erre ene a

0 1
  C      561.303    -136.807     560.721
  O      561.833    -135.485     560.718
  P      560.992    -134.167     561.044
  C      562.330    -133.205     563.082
  O      561.158    -133.846     562.602
  C      563.287    -134.166     563.813
  O      563.755    -135.179     562.887
  C      564.526    -133.417     564.302
  O      564.492    -132.707     565.525
  C      565.653    -134.436     564.208
  O      565.873    -135.123     565.441
  C      565.158    -135.408     563.136
  N      567.118    -137.817     559.070
  C      566.454    -138.344     560.157
  N      566.334    -139.687     560.201
  N      565.963    -137.621     561.132
  C      566.226    -136.298     561.006
  C      566.891    -135.659     559.982
  C      567.378    -136.466     558.884
  O      567.963    -136.049     557.889
  N      566.986    -134.313     560.211
  C      566.402    -134.137     561.378
  N      565.917    -135.315     561.900
  O      559.611    -134.132     560.488
  O      561.838    -133.000     560.322
  H      566.619    -135.739     565.315
  H      561.189    -132.330     560.027
  H      567.453    -138.422     558.338
  H      566.301    -133.185     561.889
  H      565.245    -136.449     563.475
  H      566.600    -133.944     563.955
  H      566.794    -140.309     559.551
  H      564.758    -132.657     563.547
  H      566.046    -140.089     561.098
  H      562.766    -134.704     564.610
  H      562.001    -132.408     563.755
  H      562.855    -132.719     562.261
  P      563.470    -131.539     565.915
  C      562.490    -132.649     568.008
  O      562.234    -132.202     566.690
  O      562.816    -131.112     564.515
  O      564.083    -130.362     566.597
  H      562.379    -130.243     564.594
  H      561.700    -133.338     568.313
  H      562.496    -131.795     568.693
  H      563.458    -133.165     568.065
  H      562.077    -137.502     560.470
  H      560.514    -136.877     560.002
  H      560.920    -137.036     561.694

 3  4  5  6  7  8  9  10  11  12  23  26  30  31 0
 6-311+G(2d,p)
 ****
 33  35  36  37  38 0
 6-311+G(2d,p)
 ****
 1  2  13  14  15  16  17  18  19  20  21  22  24  25 0
 3-21G
 ****
 27  28  29  32  34  39  40  41  42  43  44  45  46  47  48  49 0
 3-21G
 ****


