%nproc=1
%NoSave
%Mem=1900MB
#P OB98/GEN NMR

erre ene a

0 1
  C      402.643     -79.648    -300.364
  O      403.815     -79.736    -301.170
  P      404.263     -78.648    -302.249
  C      403.964     -80.089    -304.420
  O      403.536     -78.987    -303.630
  C      403.120     -80.288    -305.692
  O      401.853     -80.903    -305.338
  C      402.779     -78.941    -306.333
  O      403.710     -78.307    -307.189
  C      401.403     -79.135    -306.949
  O      401.469     -79.508    -308.322
  C      400.810     -80.280    -306.113
  N      395.906     -78.875    -305.711
  C      396.633     -79.176    -306.842
  N      395.998     -79.043    -308.025
  N      397.884     -79.563    -306.815
  C      398.427     -79.568    -305.579
  C      397.811     -79.266    -304.385
  C      396.410     -78.899    -304.416
  O      395.713     -78.631    -303.443
  N      398.682     -79.361    -303.330
  C      399.831     -79.692    -303.886
  N      399.725     -79.837    -305.251
  O      405.725     -78.361    -302.307
  O      403.522     -77.303    -301.746
  H      402.098     -80.247    -308.405
  H      404.107     -76.557    -301.988
  H      394.937     -78.606    -305.783
  H      400.761     -79.847    -303.351
  H      400.391     -81.057    -306.762
  H      400.822     -78.210    -306.902
  H      395.080     -78.639    -308.117
  H      402.632     -78.224    -305.507
  H      396.587     -79.056    -308.858
  H      403.608     -80.982    -306.381
  H      403.911     -80.974    -303.783
  H      405.013     -79.964    -304.691
  P      404.714     -77.121    -306.789
  C      402.749     -75.550    -306.304
  O      403.941     -76.129    -305.801
  O      404.837     -76.254    -308.128
  O      406.061     -77.567    -306.318
  H      405.616     -75.666    -308.085
  H      402.488     -74.685    -305.697
  H      401.935     -76.282    -306.258
  H      402.880     -75.226    -307.343
  H      402.582     -80.507    -299.729
  H      401.779     -79.608    -300.994
  H      402.688     -78.763    -299.764

 3  4  5  6  7  8  9  10  11  12  23  26  30  31 0
 6-311+G(2d,p)
 ****
 33  35  36  37  38 0
 6-311+G(2d,p)
 ****
 1  2  13  14  15  16  17  18  19  20  21  22  24  25 0
 3-21G
 ****
 27  28  29  32  34  39  40  41  42  43  44  45  46  47  48  49 0
 3-21G
 ****


