%nproc=1
%NoSave
%Mem=1900MB
#P OB98/GEN NMR

erre ene a

0 1
  C      203.138      65.843      69.050
  O      204.506      65.528      68.879
  P      205.366      66.216      67.718
  C      206.188      68.592      67.216
  O      205.197      67.809      67.870
  C      205.703      70.024      66.989
  O      204.735      70.029      65.903
  C      205.029      70.675      68.206
  O      205.352      72.068      68.163
  C      203.547      70.483      67.910
  O      202.719      71.388      68.630
  C      203.546      70.684      66.397
  N      199.937      71.410      62.849
  C      200.943      72.199      63.281
  N      201.845      71.945      64.253
  C      201.639      70.730      64.787
  C      200.641      69.826      64.472
  C      199.763      70.198      63.435
  N      198.755      69.393      62.955
  N      200.720      68.708      65.285
  C      201.753      68.940      66.072
  N      202.379      70.118      65.765
  O      205.112      65.692      66.344
  O      206.882      65.969      68.158
  H      202.982      71.367      69.568
  H      207.284      65.278      67.593
  H      201.039      73.161      62.785
  H      202.086      68.296      66.873
  H      203.601      71.745      66.123
  H      203.249      69.463      68.176
  H      205.324      70.235      69.166
  H      206.559      70.626      66.660
  H      206.403      68.126      66.248
  H      198.276      69.701      62.126
  H      198.772      68.397      63.184
  H      207.109      68.594      67.809
  P      205.376      72.926      69.518
  C      206.553      72.753      71.786
  O      206.267      72.100      70.563
  O      204.041      73.368      70.024
  O      206.313      74.175      69.150
  H      206.171      74.890      69.804
  H      207.382      73.451      71.636
  H      206.842      72.007      72.531
  H      205.679      73.302      72.156
  H      202.743      65.284      69.872
  H      202.601      65.594      68.159
  H      203.035      66.889      69.248

 3  4  5  6  7  8  9  10  11  12  22  25  29  30  31  32 0
 6-311+G(2d,p)
 ****
 33  36  37 0
 6-311+G(2d,p)
 ****
 1  2  13  14  15  16  17  18  19  20  21  23  24  26 0
 3-21G
 ****
 27  28  34  35  38  39  40  41  42  43  44  45  46  47  48 0
 3-21G
 ****


