%nproc=1
%NoSave
%Mem=1900MB
#P OB98/GEN NMR

erre ene a

0 1
  C     -468.912     -36.345     -98.706
  O     -469.255     -37.346     -97.740
  P     -470.816     -37.666     -97.539
  C     -470.516     -40.238     -97.242
  O     -470.952     -39.008     -96.673
  C     -470.654     -41.380     -96.220
  O     -469.570     -41.356     -95.272
  C     -471.918     -41.279     -95.391
  O     -473.041     -41.737     -96.130
  C     -471.579     -42.160     -94.186
  O     -471.952     -43.529     -94.407
  C     -470.044     -42.020     -94.079
  N     -469.618     -41.316     -92.876
  C     -469.519     -42.087     -91.717
  O     -469.802     -43.291     -91.745
  N     -469.128     -41.475     -90.548
  C     -468.887     -40.197     -90.542
  N     -468.506     -39.645     -89.354
  C     -469.005     -39.339     -91.742
  C     -469.379     -39.952     -92.866
  O     -471.289     -38.120     -99.003
  O     -471.614     -36.509     -97.033
  H     -472.931     -43.537     -94.452
  H     -472.215     -37.857     -99.153
  H     -468.802     -38.278     -91.682
  H     -469.493     -39.403     -93.794
  H     -469.566     -43.013     -94.072
  H     -472.108     -41.824     -93.283
  H     -472.076     -40.243     -95.056
  H     -470.628     -42.338     -96.763
  H     -468.437     -40.258     -88.557
  H     -469.477     -40.160     -97.566
  H     -468.301     -38.663     -89.236
  H     -471.108     -40.446     -98.141
  P     -474.131     -40.644     -96.577
  C     -474.850     -42.770     -97.850
  O     -475.228     -41.478     -97.415
  O     -473.352     -39.862     -97.746
  O     -474.648     -39.717     -95.533
  H     -473.878     -39.097     -98.045
  H     -475.730     -43.292     -98.215
  H     -474.403     -43.343     -97.033
  H     -474.128     -42.681     -98.674
  H     -467.849     -36.231     -98.740
  H     -469.362     -35.414     -98.430
  H     -469.270     -36.642     -99.670

 3  4  5  6  7  8  9  10  11  12  13  21  23  27  28  29  30  32 0
 6-311+G(2d,p)
 ****
 34  35 0
 6-311+G(2d,p)
 ****
 1  2  14  15  16  17  18  19  20  22  24  25  26 0
 3-21G
 ****
 31  33  36  37  38  39  40  41  42  43  44  45  46 0
 3-21G
 ****


