%nproc=1
%NoSave
%Mem=1900MB
#P OB98/GEN NMR

erre ene a

0 1
  C     -891.380    -826.223    -194.201
  O     -891.540    -825.366    -195.314
  H     -892.210    -826.938    -194.156
  H     -890.440    -826.776    -194.306
  H     -891.340    -825.637    -193.275
  P     -892.880    -824.489    -195.367
  C     -892.080    -822.052    -194.914
  O     -892.610    -823.256    -194.375
  C     -893.070    -820.916    -194.683
  O     -894.290    -821.157    -195.425
  C     -893.490    -820.756    -193.225
  O     -892.550    -820.021    -192.464
  C     -894.790    -819.989    -193.397
  O     -894.510    -818.607    -193.676
  C     -895.400    -820.674    -194.625
  N     -899.150    -822.315    -191.548
  C     -898.520    -821.117    -191.652
  N     -897.560    -820.754    -192.515
  C     -897.240    -821.767    -193.329
  C     -897.790    -823.044    -193.341
  C     -898.790    -823.307    -192.394
  N     -899.400    -824.534    -192.264
  N     -897.190    -823.823    -194.310
  C     -896.300    -823.026    -194.881
  N     -896.280    -821.788    -194.301
  O     -893.950    -825.371    -194.569
  O     -893.350    -824.095    -196.732
  H     -894.240    -818.194    -192.838
  H     -894.850    -825.044    -194.732
  H     -898.860    -820.352    -190.956
  H     -895.660    -823.298    -195.706
  H     -895.980    -819.974    -195.251
  H     -895.420    -820.008    -192.494
  H     -893.720    -821.727    -192.762
  H     -892.630    -819.987    -195.065
  H     -891.920    -822.185    -195.989
  H     -900.000    -824.664    -191.456
  H     -899.040    -825.320    -192.777
  H     -891.130    -821.827    -194.428
  P     -892.780    -819.967    -190.872
  C     -891.060    -821.809    -190.244
  O     -892.430    -821.432    -190.307
  O     -894.370    -819.888    -190.741
  O     -892.100    -818.821    -190.184
  H     -894.630    -819.370    -189.949
  H     -890.981    -822.801    -189.851
  H     -890.532    -821.130    -189.607
  H     -890.636    -821.779    -191.226

 6  7  8  9  10  11  12  13  14  15  25  28  32  33  34  35 0
 6-311+G(2d,p)
 ****
 36  39  40 0
 6-311+G(2d,p)
 ****
 1  2  3  4  5  16  17  18  19  20  21  22  23  24 0
 3-21G
 ****
 26  27  29  30  31  37  38  41  42  43  44  45  46  47 0
 3-21G
 ****
 48 0
 3-21G
 ****


