%nproc=1
%NoSave
%Mem=1900MB
#P OB98/GEN NMR

erre ene a

0 1
  C     -399.585     -93.200     111.190
  O     -400.343     -94.012     110.300
  P     -401.602     -94.799     110.897
  C     -401.945     -95.557     108.442
  O     -401.993     -95.926     109.819
  C     -402.460     -96.695     107.562
  O     -401.502     -97.794     107.606
  C     -403.824     -97.255     107.976
  O     -404.629     -97.457     106.805
  C     -403.490     -98.626     108.548
  O     -404.592     -99.518     108.459
  C     -402.288     -99.002     107.683
  N     -401.751    -104.025     107.674
  C     -402.506    -103.216     106.844
  N     -403.267    -103.846     105.921
  N     -402.520    -101.911     106.924
  C     -401.683    -101.418     107.870
  C     -400.880    -102.118     108.740
  C     -400.923    -103.564     108.686
  O     -400.352    -104.337     109.454
  N     -400.159    -101.266     109.548
  C     -400.531    -100.055     109.166
  N     -401.490    -100.096     108.184
  O     -402.786     -93.726     110.768
  O     -401.457     -95.272     112.306
  H     -404.307    -100.375     108.834
  H     -403.199     -93.577     111.645
  H     -401.795    -105.026     107.586
  H     -400.163     -99.129     109.586
  H     -402.615     -99.263     106.668
  H     -403.214     -98.512     109.601
  H     -403.283    -104.845     105.788
  H     -404.372     -96.626     108.692
  H     -403.814    -103.270     105.290
  H     -402.485     -96.341     106.521
  H     -400.906     -95.326     108.173
  H     -402.560     -94.659     108.299
  P     -406.106     -96.811     106.836
  C     -405.998     -96.022     104.356
  O     -406.631     -96.838     105.328
  O     -405.816     -95.254     107.116
  O     -407.006     -97.411     107.869
  H     -406.590     -94.833     107.532
  H     -405.079     -95.555     104.745
  H     -406.688     -95.231     104.059
  H     -405.753     -96.632     103.489
  H     -398.781     -92.739     110.655
  H     -399.188     -93.807     111.977
  H     -400.216     -92.443     111.607

 3  4  5  6  7  8  9  10  11  12  23  26  30  31  33  0
 6-311+G(2d,p)
 ****
 35  36  37  38 0
 6-311+G(2d,p)
 ****
 1  2  13  14  15  16  17  18  19  20  21  22  24  25  27  28  29 0
 3-21G
 ****
 32  34  39  40  41  42  43  44  45  46  47  48  49 0
 3-21G
 ****


