%nproc=1
%NoSave
%Mem=1900MB
#P OB98/GEN NMR

erre ene a

0 1
  C     -164.343     465.949    -437.185
  O     -165.190     466.178    -438.291
  H     -164.886     466.198    -436.270
  H     -163.459     466.586    -437.254
  H     -164.043     464.896    -437.145
  P     -164.582     465.875    -439.743
  C     -166.122     463.815    -440.073
  O     -164.788     464.302    -440.002
  C     -166.157     462.303    -439.825
  O     -165.370     461.635    -440.861
  C     -165.577     461.885    -438.465
  O     -166.353     460.797    -437.950
  C     -164.193     461.382    -438.818
  O     -163.680     460.482    -437.844
  C     -164.459     460.749    -440.184
  N     -160.397     457.818    -440.658
  C     -161.490     457.705    -439.814
  N     -161.503     456.664    -438.954
  N     -162.478     458.554    -439.809
  C     -162.348     459.538    -440.730
  C     -161.323     459.765    -441.611
  C     -160.218     458.825    -441.595
  O     -159.214     458.874    -442.302
  N     -161.548     460.889    -442.369
  C     -162.710     461.349    -441.936
  N     -163.240     460.564    -440.943
  O     -163.001     466.002    -439.521
  O     -165.069     466.763    -440.849
  H     -163.583     460.974    -437.000
  H     -162.556     466.309    -440.338
  H     -159.656     457.137    -440.615
  H     -163.210     462.241    -442.302
  H     -164.938     459.765    -440.102
  H     -163.491     462.224    -438.910
  H     -160.790     455.949    -438.934
  H     -165.552     462.696    -437.735
  H     -162.299     456.559    -438.338
  H     -167.183     461.949    -439.942
  H     -166.525     464.029    -441.072
  H     -166.738     464.326    -439.324
  P     -167.002     460.966    -436.491
  C     -169.463     460.320    -437.027
  O     -168.555     461.355    -436.665
  O     -166.339     462.327    -435.967
  O     -166.722     459.830    -435.566
  H     -165.696     462.121    -435.263
  H     -170.451     460.724    -437.106
  H     -169.449     459.555    -436.279
  H     -169.172     459.903    -437.969

 6  7  8  9  10  11  12  13  14  15  26  29  33  34 0
 6-311+G(2d,p)
 ****
 36  38  39  40  41 0
 6-311+G(2d,p)
 ****
 1  2  3  4  5  16  17  18  19  20  21  22  23  24  25 0
 3-21G
 ****
 27  28  30  31  32  35  37  42  43  44  45  46  47 0
 3-21G
 ****
 48  49 0
 3-21G
 ****


