%nproc=1
%NoSave
%Mem=1900MB
#P OB98/GEN NMR

erre ene a

0 1
  C      394.038     -80.116     214.011
  O      394.909     -79.373     214.834
  H      394.630     -80.671     213.283
  H      393.368     -79.435     213.475
  H      393.443     -80.826     214.596
  P      394.373     -78.840     216.243
  C      396.863     -78.851     216.933
  O      395.609     -78.182     217.031
  C      398.023     -77.858     216.856
  O      397.875     -76.853     217.879
  C      399.382     -78.529     217.090
  O      399.977     -79.077     215.924
  C      400.213     -77.371     217.638
  O      400.833     -76.626     216.577
  C      399.175     -76.510     218.369
  N      402.048     -76.581     222.599
  C      402.454     -76.572     221.276
  N      403.786     -76.624     221.067
  N      401.621     -76.530     220.272
  C      400.320     -76.580     220.638
  C      399.800     -76.616     221.913
  C      400.726     -76.583     223.022
  O      400.420     -76.575     224.212
  N      398.428     -76.702     221.899
  C      398.130     -76.813     220.616
  N      399.238     -76.664     219.812
  O      394.112     -80.188     217.075
  O      393.129     -78.006     216.187
  H      400.139     -76.391     215.931
  H      393.372     -80.049     217.694
  H      402.734     -76.582     223.333
  H      397.133     -76.952     220.218
  H      399.326     -75.442     218.158
  H      401.018     -77.740     218.276
  H      404.465     -76.743     221.798
  H      399.305     -79.295     217.868
  H      404.114     -76.812     220.115
  H      397.994     -77.343     215.887
  H      396.821     -79.454     216.023
  H      396.995     -79.532     217.778
  P      400.919     -80.360     216.007
  C      400.480     -80.542     213.423
  O      401.329     -80.785     214.524
  O      399.913     -81.519     216.458
  O      402.091     -80.240     216.934
  H      399.981     -81.678     217.421
  H      400.943     -80.903     212.529
  H      400.304     -79.490     213.334
  H      399.549     -81.048     213.572

 6  7  8  9  10  11  12  13  14  15  26  29  33  34 0
 6-311+G(2d,p)
 ****
 36  38  39  40  41 0
 6-311+G(2d,p)
 ****
 1  2  3  4  5  16  17  18  19  20  21  22  23  24  25 0
 3-21G
 ****
 27  28  30  31  32  35  37  42  43  44  45  46  47 0
 3-21G
 ****
 48  49 0
 3-21G
 ****


