%nproc=1
%NoSave
%Mem=1900MB
#P OB98/GEN NMR

erre ene a

0 1
  C     -798.001    1413.695     520.998
  O     -796.844    1412.989     521.420
  H     -798.886    1413.158     521.367
  H     -798.040    1413.731     519.911
  H     -798.003    1414.703     521.420
  P     -795.432    1413.691     521.133
  C     -795.520    1412.582     518.752
  O     -794.770    1412.867     519.922
  C     -794.598    1412.118     517.626
  O     -793.758    1413.229     517.216
  C     -793.669    1410.958     518.026
  O     -793.492    1410.099     516.891
  C     -792.349    1411.657     518.333
  O     -791.240    1410.775     518.214
  C     -792.387    1412.815     517.310
  N     -791.507    1413.920     517.699
  C     -790.127    1413.685     517.642
  O     -789.697    1412.587     517.297
  N     -789.274    1414.686     518.015
  C     -789.743    1415.803     518.481
  N     -788.841    1416.750     518.849
  C     -791.195    1416.079     518.596
  C     -792.004    1415.111     518.185
  O     -794.581    1413.241     522.414
  O     -795.502    1415.168     520.932
  H     -790.423    1411.307     518.153
  H     -794.679    1412.299     522.638
  H     -791.539    1417.020     518.992
  H     -793.083    1415.234     518.224
  H     -792.066    1412.467     516.324
  H     -792.361    1412.056     519.356
  H     -794.045    1410.381     518.872
  H     -795.212    1411.849     516.763
  H     -787.855    1416.509     518.778
  H     -796.068    1413.469     518.429
  H     -789.091    1417.629     519.281
  H     -796.241    1411.802     519.004
  P     -794.535    1408.908     516.648
  C     -793.354    1406.811     517.620
  O     -793.717    1407.544     516.446
  O     -795.604    1409.167     515.628
  O     -795.200    1408.703     518.089
  H     -796.150    1408.553     517.969
  H     -792.816    1405.930     517.338
  H     -794.238    1406.534     518.155
  H     -792.736    1407.421     518.245

 6  7  8  9  10  11  12  13  14  15  16  26  30  31  32  33  35 0
 6-311+G(2d,p)
 ****
 37  38 0
 6-311+G(2d,p)
 ****
 1  2  3  4  5  17  18  19  20  21  22  23  24  25 0
 3-21G
 ****
 27  28  29  34  36  39  40  41  42  43  44  45  46 0
 3-21G
 ****


