%nproc=1
%NoSave
%Mem=1900MB
#P OB98/GEN NMR

erre ene a

0 1
  C      468.011    1015.367     434.650
  O      469.054    1015.229     435.590
  H      467.058    1015.223     435.167
  H      468.110    1014.600     433.876
  H      468.016    1016.359     434.191
  P      470.495    1015.825     435.232
  C      471.311    1013.885     436.729
  O      471.566    1015.205     436.254
  C      472.303    1013.470     437.815
  O      473.644    1013.503     437.289
  C      472.280    1014.421     439.021
  O      471.313    1014.096     440.009
  C      473.693    1014.260     439.572
  O      473.774    1013.171     440.507
  C      474.532    1013.955     438.322
  N      479.036    1016.377     438.225
  C      478.650    1015.282     438.978
  N      479.580    1014.812     439.840
  N      477.471    1014.732     438.906
  C      476.620    1015.376     438.073
  C      476.879    1016.483     437.280
  C      478.214    1017.034     437.319
  O      478.606    1017.996     436.654
  N      475.762    1016.882     436.600
  C      474.806    1016.086     437.042
  N      475.300    1015.098     437.872
  O      470.399    1017.355     435.719
  O      470.879    1015.761     433.782
  H      473.353    1012.393     440.103
  H      470.958    1017.919     435.150
  H      479.967    1016.741     438.302
  H      473.763    1016.138     436.759
  H      475.242    1013.142     438.506
  H      474.004    1015.154     440.107
  H      480.477    1015.252     440.011
  H      472.153    1015.458     438.698
  H      479.281    1014.136     440.555
  H      472.102    1012.432     438.114
  H      471.403    1013.224     435.867
  H      470.283    1013.808     437.099
  P      470.258    1015.185     440.521
  C      470.472    1014.505     443.053
  O      469.660    1014.689     441.908
  O      469.042    1015.020     439.502
  O      470.766    1016.592     440.560
  H      469.071    1015.693     438.809
  H      469.867    1014.169     443.869
  H      470.938    1015.432     443.312
  H      471.225    1013.774     442.843

 6  7  8  9  10  11  12  13  14  15  26  29  33  34 0
 6-311+G(2d,p)
 ****
 36  38  39  40  41 0
 6-311+G(2d,p)
 ****
 1  2  3  4  5  16  17  18  19  20  21  22  23  24  25 0
 3-21G
 ****
 27  28  30  31  32  35  37  42  43  44  45  46  47 0
 3-21G
 ****
 48  49 0
 3-21G
 ****


