%nproc=1
%NoSave
%Mem=1900MB
#P OB98/GEN NMR

erre ene a

0 1
  C     -108.601      32.138     371.052
  O     -108.802      33.032     372.133
  P     -107.565      33.751     372.845
  C     -107.487      31.943     374.747
  O     -106.809      32.677     373.749
  C     -106.493      31.570     375.854
  O     -105.472      30.693     375.332
  C     -105.804      32.807     376.428
  O     -106.482      33.262     377.585
  C     -104.400      32.305     376.706
  O     -104.358      31.594     377.959
  C     -104.178      31.328     375.528
  N     -103.744      31.887     374.232
  C     -103.491      31.032     373.163
  O     -103.637      29.815     373.214
  N     -103.029      31.634     372.018
  C     -102.849      32.975     371.837
  O     -102.218      33.473     370.913
  C     -103.387      33.832     372.899
  C     -103.780      33.261     374.035
  O     -108.268      34.705     373.916
  O     -106.651      34.506     371.937
  H     -103.540      31.070     377.968
  H     -108.329      35.621     373.578
  H     -102.714      31.006     371.288
  H     -103.395      34.903     372.738
  H     -104.148      33.879     374.851
  H     -103.462      30.543     375.797
  H     -103.698      33.131     376.804
  H     -105.749      33.599     375.667
  H     -107.029      31.029     376.647
  H     -107.929      31.036     374.311
  H     -108.308      32.536     375.160
  P     -106.599      34.833     377.870
  C     -104.621      34.915     379.499
  O     -105.108      35.305     378.232
  O     -107.654      35.238     378.842
  O     -106.863      35.447     376.414
  H     -107.823      35.605     376.290
  H     -103.554      35.138     379.551
  H     -104.771      33.841     379.654
  H     -105.138      35.477     380.286
  H     -109.546      31.765     370.717
  H     -107.989      31.321     371.374
  H     -108.116      32.653     370.249

 3  4  5  6  7  8  9  10  11  12  13  23  28  29  30  31  32 0
 6-311+G(2d,p)
 ****
 33  34 0
 6-311+G(2d,p)
 ****
 1  2  14  15  16  17  18  19  20  21  22  24  25  26  27 0
 3-21G
 ****
 35  36  37  38  39  40  41  42  43  44  45 0
 3-21G
 ****


