%nproc=1
%NoSave
%Mem=1900MB
#P OB98/GEN NMR

erre ene a

0 1
  C      108.684     620.571     765.936
  O      107.391     620.262     765.436
  P      107.204     619.792     763.915
  C      105.413     618.609     762.491
  O      105.827     618.969     763.808
  C      104.147     617.773     762.542
  O      104.408     616.461     763.095
  C      103.053     618.357     763.431
  O      102.437     619.493     762.848
  C      102.146     617.142     763.602
  O      101.286     616.983     762.468
  C      103.164     615.997     763.675
  N      103.372     615.512     765.036
  C      103.022     614.172     765.260
  O      102.538     613.500     764.369
  N      103.294     613.642     766.511
  C      103.708     614.414     767.462
  N      104.003     613.816     768.662
  C      103.921     615.876     767.307
  C      103.755     616.342     766.078
  O      108.399     619.111     763.320
  O      106.865     621.142     763.121
  H      107.447     621.208     762.348
  H      101.875     616.930     761.680
  H      104.204     616.465     768.164
  H      103.896     617.387     765.847
  H      102.842     615.159     763.056
  H      101.498     617.245     764.496
  H      103.484     618.636     764.406
  H      103.781     617.649     761.511
  H      103.866     612.816     768.727
  H      106.221     618.032     762.025
  H      104.621     614.248     769.344
  H      105.261     619.522     761.906
  P      101.277     620.204     763.701
  C       99.555     622.060     763.125
  O      100.854     621.540     762.919
  O      102.043     620.751     765.002
  O      100.138     619.315     764.075
  H      101.470     620.678     765.773
  H       99.546     623.108     762.822
  H       99.257     621.990     764.176
  H       98.843     621.503     762.512
  H      108.609     620.863     766.963
  H      109.104     621.374     765.367
  H      109.313     619.709     765.855

 3  4  5  6  7  8  9  10  11  12  13  24  27  28  29  30  32 0
 6-311+G(2d,p)
 ****
 34  35 0
 6-311+G(2d,p)
 ****
 1  2  14  15  16  17  18  19  20  21  22  23  25  26 0
 3-21G
 ****
 31  33  36  37  38  39  40  41  42  43  44  45  46 0
 3-21G
 ****


