%nproc=1
%NoSave
%Mem=1900MB
#P OB98/GEN NMR

erre ene a

0 1
  C       39.336    -164.556     104.055
  O       38.126    -165.287     103.858
  P       38.277    -166.877     103.686
  C       38.489    -167.469     106.204
  O       37.715    -167.574     105.017
  C       38.444    -168.777     106.995
  O       39.394    -168.796     108.079
  C       37.086    -169.054     107.627
  O       36.197    -169.577     106.655
  C       37.449    -170.061     108.711
  O       37.517    -171.401     108.181
  C       38.842    -169.590     109.160
  N       39.000    -169.827     114.222
  C       38.845    -170.837     113.291
  N       38.741    -172.091     113.779
  N       38.796    -170.634     112.001
  C       38.914    -169.330     111.656
  C       39.101    -168.245     112.482
  C       39.150    -168.483     113.909
  O       39.308    -167.626     114.770
  N       39.239    -167.085     111.762
  C       39.010    -167.456     110.516
  N       38.872    -168.817     110.389
  O       39.859    -167.106     103.765
  O       37.709    -167.392     102.405
  H       37.866    -171.364     107.271
  H       40.200    -167.363     102.887
  H       39.022    -170.038     115.206
  H       38.960    -166.788     109.670
  H       39.521    -170.437     109.316
  H       36.702    -170.086     109.509
  H       38.772    -172.321     114.761
  H       36.687    -168.140     108.083
  H       38.635    -172.847     113.114
  H       38.703    -169.589     106.303
  H       38.117    -166.650     106.823
  H       39.519    -167.214     105.930
  P       34.670    -169.093     106.704
  C       34.412    -166.997     105.192
  O       34.339    -168.406     105.295
  O       34.709    -167.865     107.731
  O       33.702    -170.139     107.150
  H       33.953    -167.928     108.345
  H       34.685    -166.732     104.167
  H       35.156    -166.577     105.877
  H       33.432    -166.569     105.420
  H       39.111    -163.515     104.156
  H       39.982    -164.702     103.214
  H       39.822    -164.904     104.942

 3  4  5  6  7  8  9  10  11  12  23  26  30  31 0
 6-311+G(2d,p)
 ****
 33  35  36  37  38 0
 6-311+G(2d,p)
 ****
 1  2  13  14  15  16  17  18  19  20  21  22  24  25 0
 3-21G
 ****
 27  28  29  32  34  39  40  41  42  43  44  45  46  47  48  49 0
 3-21G
 ****


