%nproc=1
%NoSave
%Mem=1900MB
#P OB98/GEN NMR

erre ene a

0 1
  C     -329.364     177.794     299.969
  O     -329.830     176.573     300.510
  H     -328.428     178.065     300.467
  H     -330.097     178.589     300.140
  H     -329.174     177.683     298.897
  P     -331.190     175.989     299.888
  C     -332.097     176.059     302.311
  O     -332.320     176.402     300.951
  C     -333.422     175.749     303.006
  O     -333.193     175.237     304.332
  C     -334.334     176.960     303.185
  O     -335.046     177.237     301.991
  C     -335.258     176.458     304.286
  O     -336.263     175.595     303.721
  C     -334.302     175.638     305.176
  N     -334.370     175.962     310.300
  C     -335.134     175.256     309.436
  N     -335.087     175.255     308.085
  C     -334.132     176.084     307.637
  C     -333.278     176.863     308.401
  C     -333.416     176.777     309.800
  N     -332.630     177.487     310.678
  N     -332.430     177.593     307.594
  C     -332.729     177.218     306.368
  N     -333.778     176.331     306.338
  O     -331.152     174.557     299.482
  O     -331.450     177.026     298.695
  H     -336.816     176.135     303.131
  H     -331.211     177.930     298.969
  H     -335.879     174.606     309.886
  H     -332.212     177.542     305.472
  H     -334.781     174.724     305.550
  H     -335.786     177.273     304.791
  H     -333.781     177.829     303.551
  H     -333.926     174.962     302.434
  H     -331.586     176.873     302.831
  H     -332.905     177.498     311.645
  H     -332.006     178.186     310.298
  H     -331.450     175.176     302.325
  P     -334.912     178.662     301.269
  C     -337.418     179.225     301.330
  O     -336.122     179.565     301.811
  O     -334.790     178.612     299.786
  O     -333.627     179.333     301.949
  H     -333.116     179.833     301.285
  H     -338.142     179.889     301.755
  H     -337.650     178.219     301.610
  H     -337.437     179.312     300.264

 6  7  8  9  10  11  12  13  14  15  25  28  32  33  34  35 0
 6-311+G(2d,p)
 ****
 36  39  40 0
 6-311+G(2d,p)
 ****
 1  2  3  4  5  16  17  18  19  20  21  22  23  24 0
 3-21G
 ****
 26  27  29  30  31  37  38  41  42  43  44  45  46  47 0
 3-21G
 ****
 48 0
 3-21G
 ****


