%nproc=1
%NoSave
%Mem=1900MB
#P OB98/GEN NMR

erre ene a

0 1
  C      423.150    -324.727    -897.020
  O      422.451    -323.633    -896.400
  P      423.142    -322.914    -895.140
  C      423.646    -320.818    -896.590
  O      424.148    -321.810    -895.700
  C      424.027    -319.412    -896.110
  O      423.564    -319.185    -894.740
  C      425.519    -319.127    -896.110
  O      425.984    -318.739    -897.380
  C      425.609    -317.960    -895.140
  O      425.245    -316.740    -895.830
  C      424.551    -318.332    -894.090
  N      427.150    -317.686    -889.790
  C      426.745    -316.760    -890.740
  N      427.091    -315.480    -890.510
  N      426.088    -317.064    -891.820
  C      425.790    -318.378    -891.920
  C      426.141    -319.405    -891.060
  C      426.895    -319.048    -889.870
  O      427.303    -319.833    -889.000
  N      425.682    -320.611    -891.500
  C      425.048    -320.328    -892.610
  N      425.107    -319.004    -892.930
  O      424.136    -324.049    -894.580
  O      422.178    -322.460    -894.100
  H      425.982    -316.534    -896.430
  H      424.272    -323.923    -893.620
  H      427.680    -317.411    -889.000
  H      424.537    -321.079    -893.240
  H      423.995    -317.442    -893.730
  H      426.628    -317.828    -894.750
  H      427.562    -315.150    -889.670
  H      426.075    -320.004    -895.700
  H      426.777    -314.774    -891.170
  H      423.508    -318.695    -896.770
  H      422.561    -320.904    -896.680
  H      424.033    -321.004    -897.600
  P      427.570    -318.714    -897.640
  C      427.527    -320.858    -899.110
  O      428.006    -320.225    -897.940
  O      428.165    -318.416    -896.180
  O      428.025    -317.691    -898.630
  H      428.990    -317.889    -896.250
  H      428.061    -321.814    -899.230
  H      427.724    -320.227    -900.000
  H      426.448    -321.043    -899.010
  H      422.572    -325.102    -897.838
  H      423.300    -325.507    -896.303
  H      424.098    -324.386    -897.380

 3  4  5  6  7  8  9  10  11  12  23  26  30  31 0
 6-311+G(2d,p)
 ****
 33  35  36  37  38 0
 6-311+G(2d,p)
 ****
 1  2  13  14  15  16  17  18  19  20  21  22  24  25 0
 3-21G
 ****
 27  28  29  32  34  39  40  41  42  43  44  45  46  47  48  49 0
 3-21G
 ****


