%nproc=1
%NoSave
%Mem=1900MB
#P OB98/GEN NMR

erre ene a

0 1
  C     -147.212     525.582      17.906
  O     -145.819     525.752      18.183
  P     -145.287     525.168      19.584
  C     -145.009     527.516      20.659
  O     -145.623     526.234      20.729
  C     -145.377     528.343      21.889
  O     -146.803     528.597      21.954
  C     -145.032     527.658      23.205
  O     -143.639     527.715      23.455
  C     -145.883     528.465      24.180
  O     -145.251     529.719      24.493
  C     -147.157     528.722      23.356
  N     -151.451     528.068      26.057
  C     -150.594     529.109      25.966
  N     -149.468     529.201      25.223
  C     -149.269     528.077      24.515
  C     -150.061     526.939      24.500
  C     -151.200     526.956      25.323
  N     -152.073     525.894      25.429
  N     -149.536     525.991      23.651
  C     -148.435     526.534      23.180
  N     -148.236     527.801      23.659
  O     -143.697     525.251      19.434
  O     -145.744     523.771      19.858
  H     -145.884     530.241      25.025
  H     -143.324     524.355      19.329
  H     -150.836     529.976      26.571
  H     -147.749     526.054      22.486
  H     -147.549     529.735      23.500
  H     -146.062     527.944      25.127
  H     -145.365     526.614      23.188
  H     -144.858     529.306      21.818
  H     -145.329     528.034      19.751
  H     -152.818     525.958      26.103
  H     -151.846     525.029      24.954
  H     -143.926     527.382      20.578
  P     -142.737     526.485      22.946
  C     -141.744     526.306      25.308
  O     -142.459     525.638      24.283
  O     -141.336     527.206      22.683
  O     -143.306     525.720      21.802
  H     -141.091     527.799      23.419
  H     -141.657     525.634      26.167
  H     -142.274     527.214      25.618
  H     -140.741     526.564      24.955
  H     -147.441     526.009      16.952
  H     -147.789     526.071      18.663
  H     -147.449     524.539      17.896

 3  4  5  6  7  8  9  10  11  12  22  25  29  30  31  32 0
 6-311+G(2d,p)
 ****
 33  36  37 0
 6-311+G(2d,p)
 ****
 1  2  13  14  15  16  17  18  19  20  21  23  24  26 0
 3-21G
 ****
 27  28  34  35  38  39  40  41  42  43  44  45  46  47  48 0
 3-21G
 ****


