%nproc=1
%NoSave
%Mem=1900MB
#P OB98/GEN NMR

erre ene a

0 1
  C      210.881    -452.126      89.964
  O      211.449    -453.320      89.462
  H      209.795    -452.248      90.010
  H      211.114    -451.293      89.294
  H      211.257    -451.916      90.969
  P      213.053    -453.419      89.482
  C      212.786    -455.981      88.969
  O      213.414    -454.748      88.662
  C      212.676    -456.856      87.719
  O      211.553    -456.396      86.929
  C      213.921    -456.818      86.830
  O      214.105    -458.114      86.255
  C      213.540    -455.832      85.737
  O      214.304    -456.026      84.550
  C      212.034    -456.107      85.598
  N      211.317    -454.984      84.996
  C      211.130    -455.029      83.613
  O      211.573    -455.973      82.956
  N      210.488    -453.987      82.995
  C      210.119    -452.957      83.689
  N      209.510    -451.945      83.014
  C      210.335    -452.846      85.145
  C      210.924    -453.890      85.730
  O      213.337    -453.823      91.005
  O      213.753    -452.181      89.031
  H      214.203    -456.960      84.263
  H      212.744    -454.516      91.338
  H      210.020    -451.961      85.678
  H      211.115    -453.896      86.795
  H      211.862    -456.998      84.980
  H      213.710    -454.807      86.081
  H      214.822    -456.521      87.374
  H      212.447    -457.880      88.030
  H      209.403    -452.051      82.015
  H      211.787    -455.807      89.379
  H      209.231    -451.074      83.442
  H      213.385    -456.485      89.734
  P      215.052    -459.173      86.988
  C      213.571    -461.268      86.647
  O      214.808    -460.627      86.357
  O      215.053    -459.119      88.478
  O      216.508    -458.797      86.420
  H      217.143    -458.857      87.160
  H      213.543    -462.223      86.166
  H      212.764    -460.664      86.288
  H      213.476    -461.398      87.705

 6  7  8  9  10  11  12  13  14  15  16  26  30  31  32  33  35 0
 6-311+G(2d,p)
 ****
 37  38 0
 6-311+G(2d,p)
 ****
 1  2  3  4  5  17  18  19  20  21  22  23  24  25 0
 3-21G
 ****
 27  28  29  34  36  39  40  41  42  43  44  45  46 0
 3-21G
 ****


