%nproc=1
%NoSave
%Mem=1900MB
#P OB98/GEN NMR

erre ene a

0 1
  C       96.563     -33.005      76.591
  O       97.610     -32.235      76.041
  H       96.765     -34.060      76.393
  H       95.616     -32.733      76.117
  H       96.490     -32.859      77.671
  P       97.739     -30.696      76.458
  C       98.654     -30.912      78.861
  O       98.945     -30.590      77.509
  C       99.575     -30.140      79.814
  O       99.160     -30.396      81.180
  C      101.028     -30.611      79.694
  O      101.956     -29.582      80.030
  C      101.111     -31.711      80.740
  O      102.443     -31.960      81.188
  C      100.187     -31.166      81.826
  N      100.930     -34.841      85.278
  C      101.860     -34.129      84.547
  N      103.160     -34.436      84.768
  N      101.545     -33.218      83.664
  C      100.209     -33.067      83.496
  C       99.192     -33.729      84.144
  C       99.554     -34.711      85.144
  O       98.770     -35.386      85.804
  N       97.961     -33.313      83.700
  C       98.233     -32.406      82.784
  N       99.584     -32.203      82.641
  O       96.454     -30.448      77.382
  O       97.795     -29.721      75.322
  H      102.384     -32.526      81.980
  H       96.234     -29.499      77.409
  H      101.227     -35.511      85.966
  H       97.495     -31.860      82.210
  H      100.734     -30.495      82.500
  H      100.743     -32.637      80.293
  H      103.430     -35.258      85.286
  H      101.266     -30.994      78.705
  H      103.820     -34.161      84.036
  H       99.470     -29.062      79.647
  H       98.802     -31.988      78.972
  H       97.607     -30.703      79.084
  P      102.387     -28.540      78.893
  C      100.106     -27.200      78.961
  O      101.515     -27.209      79.019
  O      101.864     -29.213      77.542
  O      103.855     -28.253      78.844
  H      102.615     -29.445      76.965
  H       99.751     -26.196      79.069
  H       99.713     -27.804      79.752
  H       99.785     -27.593      78.019

 6  7  8  9  10  11  12  13  14  15  26  29  33  34 0
 6-311+G(2d,p)
 ****
 36  38  39  40  41 0
 6-311+G(2d,p)
 ****
 1  2  3  4  5  16  17  18  19  20  21  22  23  24  25 0
 3-21G
 ****
 27  28  30  31  32  35  37  42  43  44  45  46  47 0
 3-21G
 ****
 48  49 0
 3-21G
 ****


