%nproc=1
%NoSave
%Mem=1900MB
#P OB98/GEN NMR

erre ene a

0 1
  C       -6.867     247.930      98.017
  O       -8.214     248.337      98.128
  P       -9.096     248.798      96.878
  C       -8.941     251.353      97.327
  O       -8.627     250.275      96.451
  C       -9.099     252.694      96.594
  O       -7.944     252.925      95.761
  C      -10.308     252.642      95.652
  O      -11.607     252.888      96.149
  C       -9.907     253.487      94.449
  O      -10.433     254.814      94.513
  C       -8.379     253.512      94.523
  N       -7.890     253.095      89.495
  C       -8.440     254.127      90.232
  N       -9.107     255.066      89.528
  N       -8.360     254.206      91.537
  C       -7.745     253.141      92.105
  C       -7.149     252.072      91.478
  C       -7.210     252.016      90.038
  O       -6.809     251.078      89.351
  N       -6.688     251.146      92.378
  C       -7.038     251.633      93.550
  N       -7.717     252.824      93.433
  O      -10.559     248.501      96.940
  O       -8.471     247.891      95.697
  H      -10.191     255.270      93.686
  H       -9.198     247.666      95.085
  H       -8.053     253.046      88.497
  H       -6.857     251.154      94.504
  H       -8.009     254.545      94.521
  H      -10.293     253.047      93.523
  H       -9.315     254.958      88.546
  H      -10.361     251.615      95.268
  H       -9.665     255.737      90.046
  H       -9.129     253.528      97.301
  H       -8.142     251.412      98.072
  H       -9.865     251.128      97.863
  P      -12.886     251.947      95.967
  C      -13.961     253.259      94.051
  O      -13.366     252.035      94.443
  O      -14.056     252.712      96.750
  O      -12.728     250.560      96.497
  H      -14.756     252.079      96.998
  H      -14.512     253.107      93.119
  H      -13.178     254.008      93.883
  H      -14.651     253.621      94.818
  H       -6.492     247.670      98.985
  H       -6.285     248.731      97.612
  H       -6.803     247.080      97.370

 3  4  5  6  7  8  9  10  11  12  23  26  30  31 0
 6-311+G(2d,p)
 ****
 33  35  36  37  38 0
 6-311+G(2d,p)
 ****
 1  2  13  14  15  16  17  18  19  20  21  22  24  25 0
 3-21G
 ****
 27  28  29  32  34  39  40  41  42  43  44  45  46  47  48  49 0
 3-21G
 ****


