%nproc=1
%NoSave
%Mem=1900MB
#P OB98/GEN NMR

erre ene a

0 1
  C       89.389     -98.740       7.939
  O       89.014     -97.365       8.060
  P       88.180     -96.951       9.367
  C       85.803     -97.440       8.461
  O       86.816     -97.801       9.387
  C       84.689     -98.492       8.413
  O       83.563     -98.019       7.618
  C       85.130     -99.828       7.808
  O       84.405    -100.869       8.475
  C       84.640     -99.733       6.377
  O       84.546    -101.019       5.769
  C       83.317     -99.000       6.589
  N       79.519     -98.882       3.181
  C       79.714     -99.625       4.292
  N       80.769     -99.612       5.136
  C       81.662     -98.681       4.759
  C       81.603     -97.856       3.647
  C       80.468     -97.982       2.831
  N       80.279     -97.245       1.685
  N       82.734     -97.066       3.569
  C       83.460     -97.415       4.613
  N       82.841     -98.363       5.376
  O       87.692     -95.463       9.032
  O       88.976     -96.992      10.629
  H       83.900    -100.963       5.033
  H       88.188     -94.822       9.572
  H       78.921    -100.329       4.532
  H       84.435     -97.021       4.856
  H       82.520     -99.669       6.936
  H       85.334     -99.124       5.785
  H       86.205    -100.026       7.871
  H       84.323     -98.654       9.434
  H       86.232     -97.328       7.461
  H       79.450     -97.417       1.139
  H       81.000     -96.605       1.388
  H       85.409     -96.454       8.729
  P       85.168    -101.624       9.664
  C       86.851    -102.743       8.039
  O       86.660    -101.884       9.146
  O       84.507    -103.082       9.671
  O       85.049    -100.948      10.992
  H       84.581    -103.480      10.558
  H       87.627    -102.320       7.395
  H       85.937    -102.871       7.451
  H       87.181    -103.720       8.399
  H       89.936     -98.882       7.031
  H       88.510     -99.350       7.925
  H       90.002     -99.017       8.771

 3  4  5  6  7  8  9  10  11  12  22  25  29  30  31  32 0
 6-311+G(2d,p)
 ****
 33  36  37 0
 6-311+G(2d,p)
 ****
 1  2  13  14  15  16  17  18  19  20  21  23  24  26 0
 3-21G
 ****
 27  28  34  35  38  39  40  41  42  43  44  45  46  47  48 0
 3-21G
 ****


