%nproc=1
%NoSave
%Mem=1900MB
#P OB98/GEN NMR

erre ene a

0 1
  C     -204.597     212.034     -85.736
  O     -204.132     210.742     -85.372
  P     -202.659     210.334     -85.872
  C     -203.344     208.722     -87.816
  O     -202.795     209.978     -87.431
  C     -203.555     208.700     -89.330
  O     -204.224     209.903     -89.762
  C     -202.265     208.615     -90.139
  O     -201.812     207.275     -90.208
  C     -202.715     209.185     -91.484
  O     -203.395     208.185     -92.265
  C     -203.676     210.300     -91.054
  N     -201.641     214.127     -93.670
  C     -202.022     212.861     -94.088
  N     -201.882     212.600     -95.410
  N     -202.504     211.946     -93.291
  C     -202.579     212.340     -92.000
  C     -202.216     213.555     -91.459
  C     -201.741     214.578     -92.360
  O     -201.487     215.742     -92.057
  N     -202.417     213.581     -90.105
  C     -202.925     212.395     -89.833
  N     -203.058     211.615     -90.946
  O     -202.425     208.918     -85.166
  O     -201.585     211.322     -85.557
  H     -204.254     207.977     -91.846
  H     -201.883     209.018     -84.359
  H     -201.296     214.795     -94.334
  H     -203.225     212.067     -88.845
  H     -204.523     210.402     -91.742
  H     -201.869     209.527     -92.088
  H     -201.500     213.245     -96.076
  H     -201.497     209.263     -89.703
  H     -202.151     211.680     -95.729
  H     -204.215     207.850     -89.563
  H     -204.304     208.584     -87.317
  H     -202.668     207.924     -87.512
  P     -200.233     207.038     -90.366
  C     -200.260     206.711     -92.946
  O     -199.835     207.498     -91.848
  O     -200.108     205.440     -90.409
  O     -199.410     207.611     -89.268
  H     -199.291     205.158     -89.965
  H     -200.386     207.363     -93.815
  H     -201.209     206.209     -92.737
  H     -199.496     205.963     -93.167
  H     -205.582     212.182     -85.345
  H     -204.620     212.117     -86.802
  H     -203.939     212.776     -85.334

 3  4  5  6  7  8  9  10  11  12  23  26  30  31 0
 6-311+G(2d,p)
 ****
 33  35  36  37  38 0
 6-311+G(2d,p)
 ****
 1  2  13  14  15  16  17  18  19  20  21  22  24  25 0
 3-21G
 ****
 27  28  29  32  34  39  40  41  42  43  44  45  46  47  48  49 0
 3-21G
 ****


