%nproc=1
%NoSave
%Mem=1900MB
#P OB98/GEN NMR

erre ene a

0 1
  C      422.755     310.264     -65.173
  O      422.292     310.907     -64.004
  H      421.925     310.189     -65.886
  H      423.095     309.255     -64.931
  H      423.566     310.830     -65.641
  P      423.355     311.400     -62.916
  C      423.455     309.223     -61.521
  O      424.137     310.079     -62.428
  C      424.391     308.123     -61.026
  O      424.689     307.235     -62.146
  C      425.732     308.662     -60.485
  O      426.166     307.820     -59.413
  C      426.642     308.481     -61.690
  O      428.002     308.475     -61.331
  C      426.125     307.150     -62.245
  N      426.582     306.925     -63.609
  C      427.225     305.717     -63.866
  O      427.425     304.857     -63.015
  N      427.699     305.553     -65.142
  C      427.696     306.500     -66.125
  O      428.209     306.322     -67.225
  C      427.051     307.782     -65.777
  C      426.529     307.926     -64.561
  O      422.816     312.248     -61.805
  O      424.480     312.157     -63.769
  H      428.554     308.311     -62.117
  H      424.987     312.764     -63.198
  H      428.160     304.674     -65.350
  H      427.043     308.555     -66.534
  H      426.063     308.860     -64.267
  H      426.451     306.308     -61.610
  H      426.488     309.287     -62.409
  H      425.679     309.698     -60.149
  H      423.877     307.525     -60.265
  H      422.602     308.777     -62.053
  H      423.074     309.812     -60.676
  P      426.091     308.299     -57.873
  C      428.429     309.361     -57.823
  O      427.039     309.577     -57.635
  O      426.296     307.195     -56.889
  O      424.613     308.898     -57.724
  H      424.213     308.561     -56.899
  H      428.960     310.272     -57.640
  H      428.607     309.041     -58.828
  H      428.768     308.608     -57.143

 6  7  8  9  10  11  12  13  14  15  16  26  31  32  33  34  35 0
 6-311+G(2d,p)
 ****
 36  37 0
 6-311+G(2d,p)
 ****
 1  2  3  4  5  17  18  19  20  21  22  23  24  25 0
 3-21G
 ****
 27  28  29  30  38  39  40  41  42  43  44  45 0
 3-21G
 ****


