%nproc=1
%NoSave
%Mem=1900MB
#P OB98/GEN NMR

erre ene a

0 1
  C     -157.590      61.200     196.635
  O     -157.933      61.402     195.270
  P     -157.559      60.233     194.232
  C     -159.958      59.256     194.391
  O     -158.562      59.028     194.563
  C     -160.444      58.648     193.086
  O     -160.308      57.218     193.133
  C     -161.915      58.907     192.772
  O     -162.114      60.196     192.211
  C     -162.193      57.815     191.753
  O     -161.743      58.236     190.453
  C     -161.328      56.653     192.268
  N     -163.106      51.908     192.274
  C     -162.361      52.574     191.321
  N     -162.016      51.864     190.221
  N     -161.987      53.823     191.433
  C     -162.371      54.395     192.599
  C     -163.111      53.842     193.617
  C     -163.561      52.474     193.459
  O     -164.277      51.853     194.239
  N     -163.280      54.729     194.647
  C     -162.616      55.803     194.271
  N     -162.069      55.657     193.021
  O     -156.150      59.699     194.780
  O     -157.476      60.652     192.804
  H     -162.250      59.034     190.217
  H     -155.645      59.294     194.051
  H     -163.354      50.943     192.145
  H     -162.507      56.698     194.868
  H     -160.807      56.147     191.445
  H     -163.257      57.582     191.660
  H     -162.163      50.869     190.145
  H     -162.534      58.753     193.661
  H     -161.437      52.328     189.530
  H     -159.807      59.022     192.274
  H     -160.145      60.336     194.377
  H     -160.491      58.819     195.244
  P     -163.623      60.757     192.223
  C     -163.698      61.621     194.677
  O     -164.104      60.628     193.752
  O     -164.443      59.613     191.469
  O     -163.787      62.094     191.590
  H     -165.250      59.989     191.058
  H     -163.660      62.610     194.218
  H     -162.710      61.361     195.072
  H     -164.412      61.645     195.502
  H     -157.895      62.050     197.209
  H     -156.531      61.072     196.722
  H     -158.086      60.326     197.002

 3  4  5  6  7  8  9  10  11  12  23  26  30  31  33  0
 6-311+G(2d,p)
 ****
 35  36  37  38 0
 6-311+G(2d,p)
 ****
 1  2  13  14  15  16  17  18  19  20  21  22  24  25  27  28  29 0
 3-21G
 ****
 32  34  39  40  41  42  43  44  45  46  47  48  49 0
 3-21G
 ****


