%nproc=1
%NoSave
%Mem=1900MB
#P OB98/GEN NMR

erre ene a

0 1
  C      148.901     424.862      33.578
  O      148.942     424.406      32.221
  P      149.179     425.416      30.995
  C      146.901     426.582      30.788
  O      148.266     426.732      31.162
  C      146.414     427.673      29.825
  O      146.583     428.997      30.405
  C      147.131     427.703      28.465
  O      146.161     428.172      27.522
  C      148.205     428.748      28.690
  O      148.743     429.279      27.488
  C      147.439     429.759      29.535
  N      149.726     434.343      29.698
  C      148.759     433.848      28.898
  N      148.179     432.632      28.933
  C      148.650     431.907      29.959
  C      149.628     432.278      30.869
  C      150.188     433.562      30.706
  N      151.205     434.051      31.492
  N      149.883     431.255      31.765
  C      149.079     430.281      31.393
  N      148.311     430.624      30.307
  O      149.080     424.775      29.649
  O      150.665     425.969      31.224
  H      148.051     429.809      27.049
  H      151.150     425.948      30.378
  H      148.416     434.515      28.110
  H      149.024     429.303      31.852
  H      146.799     430.396      28.912
  H      149.037     428.296      29.253
  H      147.533     426.733      28.166
  H      145.336     427.531      29.679
  H      146.285     426.605      31.697
  H      151.604     434.941      31.237
  H      151.648     433.439      32.157
  H      146.770     425.598      30.321
  P      145.175     427.170      26.756
  C      147.055     426.500      25.156
  O      146.091     426.037      26.087
  O      144.208     427.828      25.824
  O      144.410     426.384      27.927
  H      143.594     425.982      27.577
  H      146.566     426.744      24.207
  H      147.793     425.706      24.982
  H      147.571     427.382      25.535
  H      148.734     424.030      34.229
  H      148.107     425.570      33.693
  H      149.832     425.327      33.826

 3  4  5  6  7  8  9  10  11  12  22  25  29  30  31  32 0
 6-311+G(2d,p)
 ****
 33  36  37 0
 6-311+G(2d,p)
 ****
 1  2  13  14  15  16  17  18  19  20  21  23  24  26 0
 3-21G
 ****
 27  28  34  35  38  39  40  41  42  43  44  45  46  47  48 0
 3-21G
 ****


