%nproc=1
%NoSave
%Mem=1900MB
#P OB98/GEN NMR

erre ene a

0 1
  C       39.686     -71.127     -88.707
  O       38.782     -70.045     -88.680
  P       37.632     -69.948     -87.571
  C       35.639     -70.571     -89.079
  O       36.480     -70.981     -88.007
  C       34.164     -70.735     -88.691
  O       33.808     -72.148     -88.797
  C       33.872     -70.280     -87.247
  O       32.800     -69.343     -87.129
  C       33.674     -71.597     -86.515
  O       32.947     -71.479     -85.306
  C       33.057     -72.472     -87.611
  N       33.112     -73.895     -87.288
  C       32.013     -74.439     -86.631
  O       31.007     -73.808     -86.319
  N       32.120     -75.755     -86.273
  C       33.233     -76.531     -86.397
  O       33.291     -77.673     -85.964
  C       34.377     -75.889     -87.063
  C       34.262     -74.631     -87.493
  O       37.141     -68.571     -87.277
  O       38.282     -70.691     -86.309
  H       33.219     -72.210     -84.721
  H       38.532     -71.618     -86.465
  H       31.330     -76.161     -85.796
  H       35.278     -76.477     -87.166
  H       35.089     -74.132     -87.987
  H       32.017     -72.201     -87.800
  H       34.666     -71.986     -86.253
  H       34.732     -69.751     -86.820
  H       33.565     -70.171     -89.412
  H       35.850     -71.193     -89.951
  H       35.864     -69.534     -89.353
  P       32.543     -68.396     -85.865
  C       30.684     -69.925     -84.883
  O       31.930     -69.289     -84.688
  O       31.797     -67.137     -86.156
  O       34.020     -68.067     -85.339
  H       34.024     -67.192     -84.907
  H       30.195     -70.039     -83.911
  H       30.849     -70.917     -85.310
  H       30.034     -69.344     -85.542
  H       40.369     -71.001     -89.521
  H       39.145     -72.041     -88.835
  H       40.230     -71.160     -87.786

 3  4  5  6  7  8  9  10  11  12  13  23  28  29  30  31  32 0
 6-311+G(2d,p)
 ****
 33  34 0
 6-311+G(2d,p)
 ****
 1  2  14  15  16  17  18  19  20  21  22  24  25  26  27 0
 3-21G
 ****
 35  36  37  38  39  40  41  42  43  44  45 0
 3-21G
 ****


