%nproc=1
%NoSave
%Mem=1900MB
#P OB98/GEN NMR

erre ene a

0 1
  C      518.926    -320.068      86.591
  O      520.220    -319.550      86.830
  H      518.370    -319.347      85.985
  H      518.397    -320.216      87.533
  H      518.983    -321.015      86.043
  P      521.300    -320.477      87.567
  C      523.382    -319.353      86.539
  O      522.637    -319.605      87.725
  C      524.091    -317.999      86.654
  O      523.125    -316.927      86.581
  C      524.832    -317.803      87.971
  O      526.050    -318.525      87.984
  C      524.986    -316.290      87.987
  O      526.093    -315.873      87.169
  C      523.640    -315.829      87.382
  N      522.675    -315.409      88.387
  C      523.036    -314.314      89.175
  O      524.118    -313.735      89.072
  N      522.116    -313.924      90.111
  C      520.949    -314.576      90.403
  O      520.200    -314.238      91.316
  C      520.634    -315.732      89.566
  C      521.494    -316.093      88.607
  O      521.497    -321.832      86.980
  O      520.752    -320.566      89.073
  H      526.906    -316.129      87.656
  H      520.354    -321.440      89.220
  H      522.365    -313.148      90.700
  H      519.709    -316.265      89.759
  H      521.281    -316.947      87.979
  H      523.810    -314.993      86.684
  H      525.166    -315.906      88.988
  H      524.195    -318.104      88.807
  H      524.777    -317.900      85.800
  H      522.694    -319.332      85.687
  H      524.109    -320.161      86.399
  P      526.502    -319.306      89.310
  C      527.624    -321.429      88.387
  O      527.824    -320.138      88.960
  O      525.419    -320.088      89.983
  O      527.047    -318.145      90.264
  H      526.514    -318.123      91.085
  H      528.573    -321.886      88.198
  H      527.085    -321.332      87.468
  H      527.064    -322.038      89.066

 6  7  8  9  10  11  12  13  14  15  16  26  31  32  33  34  35 0
 6-311+G(2d,p)
 ****
 36  37 0
 6-311+G(2d,p)
 ****
 1  2  3  4  5  17  18  19  20  21  22  23  24  25 0
 3-21G
 ****
 27  28  29  30  38  39  40  41  42  43  44  45 0
 3-21G
 ****


