%nproc=1
%NoSave
%Mem=1900MB
#P OB98/GEN NMR

erre ene a

0 1
  C      152.501    -292.005    -159.651
  O      153.873    -291.661    -159.639
  H      152.412    -293.066    -159.907
  H      151.976    -291.418    -160.407
  H      152.051    -291.845    -158.667
  P      154.301    -290.197    -159.152
  C      154.692    -287.899    -160.269
  O      154.172    -289.214    -160.421
  C      155.019    -287.288    -161.636
  O      156.251    -287.890    -162.130
  C      153.937    -287.516    -162.692
  O      153.835    -286.352    -163.520
  C      154.470    -288.680    -163.504
  O      153.958    -288.695    -164.839
  C      155.980    -288.456    -163.426
  N      159.438    -290.788    -166.284
  C      158.981    -289.489    -166.324
  N      159.506    -288.689    -167.276
  N      158.081    -289.011    -165.504
  C      157.655    -289.913    -164.582
  C      158.036    -291.227    -164.440
  C      159.011    -291.751    -165.371
  O      159.443    -292.904    -165.392
  N      157.360    -291.823    -163.399
  C      156.587    -290.870    -162.917
  N      156.716    -289.695    -163.609
  O      155.616    -290.128    -158.438
  O      153.101    -289.725    -158.206
  H      154.488    -289.354    -165.338
  H      153.356    -289.765    -157.269
  H      160.118    -291.110    -166.947
  H      155.906    -290.985    -162.076
  H      156.336    -287.756    -164.194
  H      154.184    -289.626    -163.021
  H      160.223    -288.986    -167.932
  H      152.961    -287.729    -162.245
  H      159.213    -287.719    -167.315
  H      155.222    -286.221    -161.497
  H      155.602    -287.953    -159.661
  H      153.951    -287.279    -159.749
  P      152.536    -285.420    -163.408
  C      150.243    -285.244    -164.555
  O      151.339    -286.087    -164.244
  O      152.764    -283.971    -163.678
  O      152.070    -285.652    -161.885
  H      151.697    -284.816    -161.541
  H      149.514    -285.797    -165.110
  H      150.585    -284.416    -165.141
  H      149.803    -284.882    -163.649

 6  7  8  9  10  11  12  13  14  15  26  29  33  34 0
 6-311+G(2d,p)
 ****
 36  38  39  40  41 0
 6-311+G(2d,p)
 ****
 1  2  3  4  5  16  17  18  19  20  21  22  23  24  25 0
 3-21G
 ****
 27  28  30  31  32  35  37  42  43  44  45  46  47 0
 3-21G
 ****
 48  49 0
 3-21G
 ****


