%nproc=1
%NoSave
%Mem=1900MB
#P OB98/GEN NMR

erre ene a

0 1
  C     -439.346      98.656    -477.750
  O     -439.730      97.304    -477.898
  H     -438.382      98.692    -477.238
  H     -440.084      99.199    -477.154
  H     -439.241      99.125    -478.731
  P     -441.155      97.034    -478.586
  C     -442.117      95.423    -476.819
  O     -441.548      95.549    -478.117
  C     -441.737      94.077    -476.199
  O     -442.798      93.123    -476.475
  C     -440.434      93.491    -476.754
  O     -439.745      92.810    -475.707
  C     -440.922      92.475    -477.777
  O     -439.956      91.466    -478.038
  C     -442.204      91.981    -477.111
  N     -442.581      88.497    -480.807
  C     -441.616      88.750    -479.894
  N     -441.610      89.686    -478.925
  C     -442.769      90.370    -478.918
  C     -443.841      90.229    -479.781
  C     -443.712      89.243    -480.776
  N     -444.672      89.000    -481.731
  N     -444.825      91.147    -479.478
  C     -444.364      91.825    -478.446
  N     -443.113      91.401    -478.084
  O     -441.217      97.273    -480.056
  O     -442.126      97.946    -477.698
  H     -439.632      91.114    -477.179
  H     -441.956      97.829    -476.745
  H     -440.732      88.118    -479.959
  H     -444.880      92.629    -477.935
  H     -442.015      91.214    -476.347
  H     -441.146      92.979    -478.723
  H     -439.783      94.243    -477.203
  H     -441.688      94.193    -475.108
  H     -443.210      95.504    -476.878
  H     -444.500      88.272    -482.408
  H     -445.525      89.539    -481.723
  H     -441.738      96.246    -476.205
  P     -438.459      93.495    -475.042
  C     -436.980      91.389    -474.948
  O     -437.658      92.391    -474.202
  O     -438.712      94.778    -474.318
  O     -437.494      93.733    -476.305
  H     -437.077      94.614    -476.230
  H     -436.487      90.717    -474.277
  H     -436.256      91.849    -475.588
  H     -437.686      90.847    -475.541

 6  7  8  9  10  11  12  13  14  15  25  28  32  33  34  35 0
 6-311+G(2d,p)
 ****
 36  39  40 0
 6-311+G(2d,p)
 ****
 1  2  3  4  5  16  17  18  19  20  21  22  23  24 0
 3-21G
 ****
 26  27  29  30  31  37  38  41  42  43  44  45  46  47 0
 3-21G
 ****
 48 0
 3-21G
 ****


