%nproc=1
%NoSave
%Mem=1900MB
#P OB98/GEN NMR

erre ene a

0 1
  C      366.132     334.443    -647.751
  O      367.000     333.729    -646.900
  H      365.912     333.824    -648.627
  H      366.611     335.366    -648.095
  H      365.194     334.674    -647.242
  P      367.527     334.419    -645.552
  C      367.023     332.332    -644.140
  O      368.037     333.208    -644.622
  C      367.600     330.956    -643.791
  O      368.036     330.294    -645.012
  C      368.800     331.016    -642.841
  O      368.643     330.057    -641.795
  C      369.981     330.616    -643.721
  O      371.075     330.075    -642.988
  C      369.286     329.656    -644.698
  N      370.095     329.404    -645.883
  C      371.208     328.575    -645.716
  O      371.456     328.100    -644.605
  N      372.037     328.351    -646.778
  C      371.806     328.940    -647.912
  N      372.684     328.706    -648.921
  C      370.658     329.848    -648.132
  C      369.844     330.026    -647.090
  O      366.550     335.343    -644.898
  O      368.891     335.146    -645.967
  H      371.287     330.687    -642.250
  H      369.086     335.860    -645.318
  H      370.511     330.319    -649.089
  H      368.979     330.680    -647.153
  H      369.070     328.694    -644.214
  H      370.340     331.500    -644.266
  H      368.957     332.002    -642.398
  H      366.792     330.344    -643.377
  H      373.461     328.085    -648.724
  H      366.246     332.240    -644.909
  H      372.624     329.126    -649.831
  H      366.589     332.776    -643.237
  P      368.084     330.619    -640.397
  C      366.695     328.652    -639.418
  O      367.920     329.376    -639.391
  O      366.577     331.038    -640.742
  O      368.866     331.774    -639.866
  H      366.489     332.009    -640.730
  H      366.733     327.860    -638.700
  H      366.545     328.241    -640.394
  H      365.886     329.311    -639.180

 6  7  8  9  10  11  12  13  14  15  16  26  30  31  32  33  35 0
 6-311+G(2d,p)
 ****
 37  38 0
 6-311+G(2d,p)
 ****
 1  2  3  4  5  17  18  19  20  21  22  23  24  25 0
 3-21G
 ****
 27  28  29  34  36  39  40  41  42  43  44  45  46 0
 3-21G
 ****


