%nproc=1
%NoSave
%Mem=1900MB
#P OB98/GEN NMR

erre ene a

0 1
  C      188.714      49.342    -279.801
  O      187.807      48.591    -280.583
  H      189.703      49.289    -280.268
  H      188.781      48.934    -278.790
  H      188.405      50.392    -279.762
  P      186.291      48.451    -280.082
  C      184.058      47.648    -281.103
  O      185.469      47.759    -281.278
  C      183.364      47.558    -282.469
  O      183.554      48.826    -283.142
  C      183.950      46.447    -283.355
  O      182.958      45.550    -283.862
  C      184.790      47.216    -284.371
  O      184.968      46.557    -285.608
  C      184.070      48.568    -284.463
  N      184.929      49.664    -284.906
  C      184.802      50.079    -286.231
  O      184.008      49.612    -287.049
  N      185.638      51.100    -286.613
  C      186.564      51.718    -285.828
  O      187.282      52.633    -286.224
  C      186.668      51.224    -284.445
  C      185.857      50.233    -284.055
  O      185.673      49.694    -279.533
  O      186.355      47.291    -278.977
  H      185.494      45.746    -285.441
  H      186.325      47.688    -278.085
  H      185.548      51.416    -287.566
  H      187.398      51.685    -283.796
  H      185.907      49.842    -283.041
  H      183.227      48.506    -285.153
  H      185.787      47.369    -283.942
  H      184.606      45.789    -282.775
  H      182.286      47.424    -282.310
  H      183.714      48.531    -280.557
  H      183.831      46.752    -280.513
  P      182.751      44.048    -283.364
  C      180.645      42.759    -282.478
  O      181.181      43.736    -283.359
  O      183.524      43.660    -282.148
  O      183.308      43.169    -284.600
  H      183.696      42.357    -284.212
  H      179.587      42.693    -282.620
  H      180.852      43.039    -281.466
  H      181.093      41.809    -282.684

 6  7  8  9  10  11  12  13  14  15  16  26  31  32  33  34  35 0
 6-311+G(2d,p)
 ****
 36  37 0
 6-311+G(2d,p)
 ****
 1  2  3  4  5  17  18  19  20  21  22  23  24  25 0
 3-21G
 ****
 27  28  29  30  38  39  40  41  42  43  44  45 0
 3-21G
 ****


