%nproc=1
%NoSave
%Mem=1900MB
#P OB98/GEN NMR

erre ene a

0 1
  C     -167.151     -12.916      62.362
  O     -166.518     -12.081      61.410
  P     -164.993     -12.385      61.020
  C     -165.263     -11.995      58.436
  O     -165.003     -12.894      59.499
  C     -164.350     -12.302      57.246
  O     -162.974     -12.013      57.621
  C     -164.399     -13.758      56.766
  O     -164.235     -13.740      55.342
  C     -163.181     -14.373      57.434
  O     -162.731     -15.548      56.779
  C     -162.197     -13.200      57.371
  N     -161.098     -13.307      58.331
  C     -160.014     -14.106      57.992
  O     -159.932     -14.746      56.944
  N     -159.012     -14.178      58.927
  C     -159.020     -13.598      60.161
  O     -158.103     -13.709      60.965
  C     -160.214     -12.804      60.483
  C     -161.175     -12.689      59.565
  O     -164.714     -13.708      61.872
  O     -164.067     -11.250      61.295
  H     -165.489     -14.293      61.932
  H     -162.119     -16.014      57.377
  H     -158.198     -14.721      58.686
  H     -160.265     -12.337      61.460
  H     -162.066     -12.110      59.780
  H     -161.789     -13.107      56.356
  H     -163.426     -14.633      58.468
  H     -165.336     -14.254      57.027
  H     -164.612     -11.619      56.428
  H     -165.079     -10.971      58.771
  H     -166.317     -12.070      58.148
  P     -165.000     -14.863      54.478
  C     -166.914     -13.701      53.120
  O     -166.514     -14.375      54.293
  O     -165.131     -16.027      55.576
  O     -164.283     -15.310      53.247
  H     -165.471     -15.704      56.428
  H     -168.001     -13.758      53.038
  H     -166.472     -14.155      52.230
  H     -166.618     -12.650      53.182
  H     -168.158     -12.586      62.513
  H     -166.618     -12.869      63.288
  H     -167.156     -13.924      62.004

 3  4  5  6  7  8  9  10  11  12  13  24  28  29  30  31  32 0
 6-311+G(2d,p)
 ****
 33  34 0
 6-311+G(2d,p)
 ****
 1  2  14  15  16  17  18  19  20  21  22  23  25  26  27 0
 3-21G
 ****
 35  36  37  38  39  40  41  42  43  44  45 0
 3-21G
 ****


