%nproc=1
%NoSave
%Mem=1900MB
#P OB98/GEN NMR

erre ene a

0 1
  C      110.722     -11.176     -41.958
  O      111.645     -12.248     -41.956
  H      110.638     -10.788     -40.939
  H      109.737     -11.510     -42.289
  H      111.082     -10.375     -42.608
  P      111.739     -13.166     -43.269
  C      110.114     -14.896     -42.259
  O      110.350     -13.977     -43.322
  C      108.649     -15.328     -42.217
  O      107.775     -14.181     -42.283
  C      108.225     -16.207     -43.383
  O      108.824     -17.481     -43.410
  C      106.710     -16.097     -43.324
  O      106.137     -16.988     -42.368
  C      106.528     -14.631     -42.857
  N      106.086     -13.757     -43.938
  C      105.219     -12.733     -43.577
  O      104.810     -12.560     -42.429
  N      104.801     -11.920     -44.595
  C      105.122     -12.058     -45.913
  O      104.696     -11.306     -46.782
  C      106.011     -13.184     -46.240
  C      106.448     -13.969     -45.252
  O      112.955     -14.040     -43.365
  O      111.596     -12.126     -44.475
  H      105.170     -16.853     -42.398
  H      111.882     -12.531     -45.331
  H      104.183     -11.161     -44.351
  H      106.277     -13.332     -47.277
  H      107.108     -14.806     -45.469
  H      105.781     -14.579     -42.054
  H      106.244     -16.311     -44.288
  H      108.534     -15.713     -44.314
  H      108.470     -15.826     -41.258
  H      110.369     -14.392     -41.320
  H      110.763     -15.769     -42.380
  P      109.004     -18.349     -44.734
  C      106.987     -19.828     -43.974
  O      107.632     -19.123     -45.028
  O      110.283     -19.110     -44.868
  O      108.995     -17.206     -45.876
  H      109.599     -17.504     -46.584
  H      106.092     -20.282     -44.344
  H      106.742     -19.146     -43.187
  H      107.642     -20.586     -43.598

 6  7  8  9  10  11  12  13  14  15  16  26  31  32  33  34  35 0
 6-311+G(2d,p)
 ****
 36  37 0
 6-311+G(2d,p)
 ****
 1  2  3  4  5  17  18  19  20  21  22  23  24  25 0
 3-21G
 ****
 27  28  29  30  38  39  40  41  42  43  44  45 0
 3-21G
 ****


