%nproc=1
%NoSave
%Mem=1900MB
#P OB98/GEN NMR

erre ene a

0 1
  C      -93.318     -32.244    -204.778
  O      -92.508     -31.328    -204.072
  P      -93.180     -30.238    -203.103
  C      -92.268     -28.346    -204.588
  O      -93.416     -28.894    -203.944
  C      -92.597     -27.966    -206.031
  O      -93.201     -29.075    -206.732
  C      -93.599     -26.820    -206.162
  O      -93.024     -25.574    -205.829
  C      -94.020     -26.973    -207.614
  O      -93.053     -26.376    -208.494
  C      -94.027     -28.510    -207.782
  N      -95.368     -29.065    -207.767
  C      -95.873     -29.497    -209.001
  O      -95.226     -29.327    -210.033
  N      -97.105     -30.106    -209.027
  C      -97.820     -30.163    -207.947
  N      -99.005     -30.830    -208.024
  C      -97.390     -29.573    -206.666
  C      -96.159     -29.064    -206.637
  O      -92.487     -30.042    -201.795
  O      -94.670     -30.783    -202.881
  H      -94.864     -30.793    -201.923
  H      -92.962     -25.443    -208.212
  H      -98.053     -29.587    -205.808
  H      -95.748     -28.633    -205.731
  H      -93.536     -28.786    -208.725
  H      -94.983     -26.492    -207.822
  H      -94.461     -27.019    -205.509
  H      -91.654     -27.710    -206.536
  H      -99.256     -31.235    -208.917
  H      -91.470     -29.092    -204.575
  H      -99.468     -31.211    -207.201
  H      -91.923     -27.468    -204.026
  P      -93.650     -24.795    -204.572
  C      -94.738     -22.947    -206.023
  O      -94.937     -23.996    -205.097
  O      -92.577     -23.644    -204.280
  O      -93.882     -25.643    -203.363
  H      -92.512     -23.491    -203.313
  H      -95.685     -22.751    -206.538
  H      -93.978     -23.203    -206.772
  H      -94.427     -22.038    -205.489
  H      -92.699     -32.887    -205.367
  H      -93.987     -31.708    -205.418
  H      -93.882     -32.831    -204.083

 3  4  5  6  7  8  9  10  11  12  13  24  27  28  29  30  32 0
 6-311+G(2d,p)
 ****
 34  35 0
 6-311+G(2d,p)
 ****
 1  2  14  15  16  17  18  19  20  21  22  23  25  26 0
 3-21G
 ****
 31  33  36  37  38  39  40  41  42  43  44  45  46 0
 3-21G
 ****


