%nproc=1
%NoSave
%Mem=1900MB
#P OB98/GEN NMR

erre ene a

0 1
  C       92.608     208.619     612.539
  O       92.175     209.989     612.620
  P       93.144     211.154     613.130
  C       92.820     213.730     613.141
  O       92.261     212.456     613.478
  C       91.831     214.862     613.369
  O       90.642     214.692     612.549
  C       91.322     214.991     614.810
  O       92.294     215.636     615.620
  C       90.034     215.783     614.601
  O       90.320     217.179     614.469
  C       89.517     215.207     613.274
  N       84.758     213.703     612.079
  C       85.501     214.796     611.704
  N       86.747     215.122     612.062
  C       87.261     214.187     612.902
  C       86.649     213.027     613.356
  C       85.327     212.809     612.918
  N       84.584     211.707     613.299
  N       87.490     212.326     614.201
  C       88.611     213.033     614.232
  N       88.519     214.169     613.456
  O       94.307     211.444     612.221
  O       93.664     210.668     614.568
  H       90.696     217.491     615.311
  H       94.543     211.056     614.760
  H       84.998     215.477     611.020
  H       89.485     212.768     614.804
  H       89.070     215.991     612.650
  H       89.335     215.670     615.441
  H       91.079     213.992     615.203
  H       92.309     215.802     613.048
  H       93.115     213.699     612.071
  H       83.638     211.634     612.970
  H       84.976     211.051     613.966
  H       93.732     213.879     613.744
  P       93.037     214.814     616.787
  C       95.112     215.171     618.257
  O       94.144     215.777     617.414
  O       93.524     213.448     616.409
  O       91.925     214.734     617.957
  H       92.071     213.913     618.472
  H       94.676     215.014     619.255
  H       95.976     215.840     618.352
  H       95.441     214.211     617.844
  H       91.805     208.012     612.175
  H       92.900     208.279     613.511
  H       93.441     208.547     611.871

 3  4  5  6  7  8  9  10  11  12  22  25  29  30  31  32 0
 6-311+G(2d,p)
 ****
 33  36  37 0
 6-311+G(2d,p)
 ****
 1  2  13  14  15  16  17  18  19  20  21  23  24  26 0
 3-21G
 ****
 27  28  34  35  38  39  40  41  42  43  44  45  46  47  48 0
 3-21G
 ****


