%nproc=1
%NoSave
%Mem=1900MB
#P OB98/GEN NMR

erre ene a

0 1
  C       -6.436     -12.197    -418.555
  O       -7.841     -12.365    -418.337
  P       -8.816     -12.133    -419.589
  C       -7.483     -12.655    -421.764
  O       -8.380     -13.129    -420.766
  C       -7.160     -13.774    -422.759
  O       -6.326     -14.782    -422.157
  C       -8.396     -14.516    -423.241
  O       -9.076     -13.758    -424.226
  C       -7.800     -15.816    -423.768
  O       -7.448     -15.716    -425.158
  C       -6.540     -15.999    -422.892
  N       -6.636     -17.145    -422.004
  C       -6.794     -18.392    -422.623
  O       -6.867     -18.468    -423.853
  N       -6.892     -19.508    -421.836
  C       -6.861     -19.393    -420.544
  N       -6.970     -20.533    -419.814
  C       -6.724     -18.093    -419.851
  C       -6.619     -17.022    -420.633
  O       -8.374     -10.695    -420.138
  O      -10.269     -12.164    -419.240
  H       -6.778     -15.004    -425.209
  H       -9.140     -10.225    -420.513
  H       -6.710     -18.045    -418.772
  H       -6.516     -16.028    -420.211
  H       -5.653     -16.139    -423.525
  H       -8.509     -16.643    -423.683
  H       -9.062     -14.727    -422.395
  H       -6.624     -13.337    -423.612
  H       -7.065     -21.405    -420.322
  H       -6.561     -12.294    -421.300
  H       -6.964     -20.558    -418.804
  H       -7.937     -11.796    -422.269
  P      -10.677     -13.734    -424.175
  C      -12.182     -13.063    -422.208
  O      -11.036     -12.734    -422.972
  O      -11.014     -15.163    -423.528
  O      -11.400     -13.518    -425.461
  H      -11.976     -15.311    -423.529
  H      -12.197     -12.436    -421.311
  H      -12.158     -14.110    -421.902
  H      -13.089     -12.861    -422.790
  H       -5.909     -12.381    -417.642
  H       -6.243     -11.197    -418.883
  H       -6.106     -12.887    -419.303

 3  4  5  6  7  8  9  10  11  12  13  21  23  27  28  29  30  32 0
 6-311+G(2d,p)
 ****
 34  35 0
 6-311+G(2d,p)
 ****
 1  2  14  15  16  17  18  19  20  22  24  25  26 0
 3-21G
 ****
 31  33  36  37  38  39  40  41  42  43  44  45  46 0
 3-21G
 ****


