%nproc=1
%NoSave
%Mem=1900MB
#P OB98/GEN NMR

erre ene a

0 1
  C     -122.952     187.488     -51.132
  O     -121.790     187.363     -51.922
  H     -123.515     186.552     -51.182
  H     -123.582     188.291     -51.523
  H     -122.701     187.688     -50.086
  P     -120.646     188.480     -51.806
  C     -119.062     186.804     -50.647
  O     -119.255     187.683     -51.746
  C     -117.871     185.880     -50.914
  O     -118.138     185.136     -52.143
  C     -116.539     186.633     -51.103
  O     -115.479     185.826     -50.578
  C     -116.442     186.699     -52.614
  O     -115.127     186.938     -53.046
  C     -117.004     185.336     -53.004
  N     -117.362     185.288     -54.419
  C     -116.491     184.613     -55.267
  O     -115.452     184.074     -54.887
  N     -116.812     184.634     -56.596
  C     -117.830     185.342     -57.159
  O     -118.025     185.389     -58.367
  C     -118.689     186.082     -56.221
  C     -118.424     186.019     -54.914
  O     -120.829     189.494     -50.727
  O     -120.590     189.141     -53.262
  H     -114.550     186.196     -52.785
  H     -120.181     190.026     -53.219
  H     -116.195     184.139     -57.222
  H     -119.498     186.668     -56.636
  H     -119.023     186.566     -54.195
  H     -116.279     184.539     -52.791
  H     -117.074     187.508     -52.997
  H     -116.530     187.616     -50.627
  H     -117.799     185.145     -50.105
  H     -119.974     186.209     -50.520
  H     -118.889     187.388     -49.737
  P     -114.868     186.079     -49.116
  C     -114.476     183.601     -48.561
  O     -113.870     184.882     -48.706
  O     -115.889     186.400     -48.071
  O     -113.882     187.326     -49.312
  H     -114.027     187.966     -48.589
  H     -113.731     182.883     -48.289
  H     -114.928     183.313     -49.487
  H     -115.224     183.645     -47.798

 6  7  8  9  10  11  12  13  14  15  16  26  31  32  33  34  35 0
 6-311+G(2d,p)
 ****
 36  37 0
 6-311+G(2d,p)
 ****
 1  2  3  4  5  17  18  19  20  21  22  23  24  25 0
 3-21G
 ****
 27  28  29  30  38  39  40  41  42  43  44  45 0
 3-21G
 ****


