%nproc=1
%NoSave
%Mem=1900MB
#P OB98/GEN NMR

erre ene a

0 1
  C      -81.973    -701.128     231.999
  O      -83.170    -701.129     231.243
  H      -82.041    -700.348     232.761
  H      -81.121    -700.918     231.350
  H      -81.838    -702.094     232.493
  P      -83.272    -702.224     230.075
  C      -83.245    -700.442     228.173
  O      -82.609    -701.555     228.779
  C      -82.521    -700.047     226.880
  O      -82.264    -701.258     226.100
  C      -83.333    -699.103     225.972
  O      -82.404    -698.299     225.226
  C      -84.027    -700.087     225.044
  O      -84.573    -699.428     223.924
  C      -82.878    -701.063     224.808
  N      -85.197    -703.374     220.881
  C      -84.871    -702.083     221.099
  N      -84.243    -701.540     222.161
  C      -83.926    -702.493     223.057
  C      -84.182    -703.850     222.972
  C      -84.862    -704.294     221.816
  N      -85.197    -705.603     221.602
  N      -83.708    -704.511     224.092
  C      -83.174    -703.565     224.837
  N      -83.286    -702.332     224.256
  O      -84.836    -702.252     229.732
  O      -82.755    -703.582     230.420
  H      -84.813    -700.074     223.225
  H      -85.274    -702.974     230.224
  H      -85.161    -701.381     220.308
  H      -82.697    -703.716     225.798
  H      -82.114    -700.640     224.138
  H      -84.859    -700.581     225.556
  H      -84.011    -698.449     226.525
  H      -81.546    -699.619     227.131
  H      -83.226    -699.603     228.880
  H      -84.287    -700.694     227.944
  H      -85.693    -705.839     220.749
  H      -84.964    -706.298     222.297
  P      -82.065    -696.815     225.729
  C      -83.634    -695.305     224.276
  O      -83.368    -695.896     225.544
  O      -81.107    -696.278     224.560
  O      -81.381    -696.715     227.052
  H      -80.503    -695.604     224.915
  H      -84.535    -694.730     224.332
  H      -83.747    -696.074     223.541
  H      -82.820    -694.667     224.002

 6  7  8  9  10  11  12  13  14  15  25  28  32  33  34  35 0
 6-311+G(2d,p)
 ****
 36  37  40 0
 6-311+G(2d,p)
 ****
 1  2  3  4  5  16  17  18  19  20  21  22  23  24 0
 3-21G
 ****
 26  27  29  30  31  38  39 41  42  43  44  45  46  47  48 0
 3-21G
 ****


