%nproc=1
%NoSave
%Mem=1900MB
#P OB98/GEN NMR

erre ene a

0 1
  C      -84.935     442.872      56.467
  O      -84.780     443.140      57.851
  P      -84.063     444.478      58.352
  C      -82.136     443.184      59.578
  O      -82.526     444.154      58.630
  C      -81.004     442.334      58.980
  O      -81.448     441.697      57.766
  C      -79.781     443.185      58.646
  O      -78.848     443.164      59.713
  C      -79.264     442.539      57.378
  O      -78.476     441.375      57.689
  C      -80.581     442.122      56.680
  N      -81.305     443.141      55.892
  C      -80.965     443.347      54.560
  O      -80.102     442.703      53.965
  N      -81.645     444.355      53.921
  C      -82.635     445.118      54.470
  O      -83.057     446.160      53.978
  C      -83.128     444.671      55.775
  C      -82.439     443.734      56.425
  O      -84.669     444.684      59.819
  O      -84.269     445.679      57.486
  H      -77.877     441.621      58.421
  H      -85.393     445.336      59.802
  H      -81.306     444.602      52.997
  H      -84.001     445.156      56.185
  H      -82.763     443.417      57.414
  H      -80.425     441.259      56.024
  H      -78.607     443.212      56.829
  H      -80.086     444.214      58.415
  H      -80.735     441.549      59.698
  H      -82.991     442.550      59.840
  H      -81.799     443.671      60.496
  P      -78.497     444.520      60.487
  C      -76.059     443.721      60.481
  O      -76.942     444.784      60.184
  O      -78.883     444.559      61.927
  O      -79.261     445.641      59.630
  H      -80.115     445.856      60.059
  H      -75.073     443.956      60.069
  H      -76.415     442.787      60.039
  H      -75.969     443.608      61.566
  H      -85.435     441.935      56.339
  H      -83.972     442.829      56.002
  H      -85.514     443.650      56.016

 3  4  5  6  7  8  9  10  11  12  13  23  28  29  30  31  32 0
 6-311+G(2d,p)
 ****
 33  34 0
 6-311+G(2d,p)
 ****
 1  2  14  15  16  17  18  19  20  21  22  24  25  26  27 0
 3-21G
 ****
 35  36  37  38  39  40  41  42  43  44  45 0
 3-21G
 ****


