%nproc=1
%NoSave
%Mem=1900MB
#P OB98/GEN NMR

erre ene a

0 1
  C      -76.294     661.258     281.602
  O      -75.875     661.916     280.421
  H      -77.338     660.961     281.485
  H      -76.212     661.934     282.460
  H      -75.681     660.370     281.770
  P      -74.378     662.489     280.405
  C      -74.839     664.993     280.839
  O      -74.426     663.747     281.403
  C      -73.706     666.022     280.924
  O      -72.616     665.576     280.069
  C      -74.116     667.422     280.459
  O      -73.436     668.399     281.249
  C      -73.581     667.483     279.040
  O      -73.375     668.826     278.592
  C      -72.305     666.653     279.157
  N      -69.900     667.865     274.839
  C      -70.023     668.515     276.022
  N      -70.667     668.102     277.134
  C      -71.171     666.863     276.964
  C      -71.117     666.080     275.825
  C      -70.447     666.634     274.720
  N      -70.340     665.999     273.504
  N      -71.783     664.887     276.031
  C      -72.224     664.945     277.276
  N      -71.882     666.130     277.874
  O      -73.802     662.768     279.057
  O      -73.595     661.394     281.273
  H      -73.158     668.809     277.635
  H      -74.080     661.170     282.085
  H      -69.550     669.490     276.078
  H      -72.789     664.173     277.790
  H      -71.465     667.223     279.570
  H      -74.291     667.011     278.351
  H      -75.192     667.597     280.502
  H      -73.320     666.036     281.949
  H      -75.720     665.371     281.368
  H      -69.850     666.467     272.760
  H      -70.738     665.077     273.386
  H      -75.112     664.813     279.786
  P      -74.276     669.237     282.334
  C      -74.458     671.501     281.110
  O      -75.148     670.341     281.564
  O      -73.498     669.755     283.497
  O      -75.390     668.190     282.811
  H      -75.498     668.260     283.786
  H      -75.146     672.155     280.616
  H      -73.687     671.213     280.427
  H      -74.023     672.007     281.946

 6  7  8  9  10  11  12  13  14  15  25  28  32  33  34  35 0
 6-311+G(2d,p)
 ****
 36  39  40 0
 6-311+G(2d,p)
 ****
 1  2  3  4  5  16  17  18  19  20  21  22  23  24 0
 3-21G
 ****
 26  27  29  30  31  37  38  41  42  43  44  45  46  47 0
 3-21G
 ****
 48 0
 3-21G
 ****


