%nproc=1
%NoSave
%Mem=1900MB
#P OB98/GEN NMR

erre ene a

0 1
  C     -133.796     429.040     735.587
  O     -132.663     428.682     736.374
  P     -131.677     427.552     735.785
  C     -131.814     424.948     735.410
  O     -132.398     426.138     735.949
  C     -132.758     423.751     735.560
  O     -133.088     423.599     736.962
  C     -134.090     423.872     734.842
  O     -134.666     422.566     734.701
  C     -134.914     424.682     735.832
  O     -136.311     424.567     735.572
  C     -134.431     424.109     737.186
  N     -134.420     425.105     738.286
  C     -135.638     425.486     738.846
  O     -136.741     425.053     738.497
  N     -135.583     426.441     739.832
  C     -134.425     427.022     740.326
  O     -134.433     427.924     741.151
  C     -133.169     426.475     739.796
  C     -133.222     425.578     738.809
  O     -130.473     427.510     736.836
  O     -131.200     427.848     734.395
  H     -136.502     423.593     735.481
  H     -129.693     427.944     736.478
  H     -136.449     426.773     740.202
  H     -132.237     426.842     740.200
  H     -132.296     425.179     738.394
  H     -135.074     423.270     737.518
  H     -134.645     425.738     735.759
  H     -134.046     424.370     733.859
  H     -132.228     422.842     735.243
  H     -130.857     424.751     735.917
  H     -131.585     425.110     734.345
  P     -135.416     422.219     733.329
  C     -137.800     422.558     732.406
  O     -136.981     422.520     733.570
  O     -135.096     420.882     732.736
  O     -134.966     423.420     732.347
  H     -135.114     423.157     731.423
  H     -138.806     422.246     732.695
  H     -137.427     421.870     731.623
  H     -137.832     423.578     732.013
  H     -134.359     429.795     736.095
  H     -134.412     428.178     735.435
  H     -133.468     429.416     734.640

 3  4  5  6  7  8  9  10  11  12  13  23  28  29  30  31  32 0
 6-311+G(2d,p)
 ****
 33  34 0
 6-311+G(2d,p)
 ****
 1  2  14  15  16  17  18  19  20  21  22  24  25  26  27 0
 3-21G
 ****
 35  36  37  38  39  40  41  42  43  44  45 0
 3-21G
 ****


