%nproc=1
%NoSave
%Mem=1900MB
#P OB98/GEN NMR

erre ene a

0 1
  C     -410.386     355.453    -296.697
  O     -410.622     355.146    -295.338
  H     -409.446     355.004    -297.028
  H     -411.202     355.040    -297.296
  H     -410.354     356.537    -296.843
  P     -409.536     355.676    -294.280
  C     -410.283     353.559    -292.970
  O     -409.861     354.912    -292.905
  C     -410.861     353.135    -291.626
  O     -409.803     352.980    -290.653
  C     -411.839     354.140    -291.018
  O     -413.141     354.026    -291.571
  C     -411.815     353.698    -289.564
  O     -412.617     352.514    -289.400
  C     -410.333     353.376    -289.354
  N     -409.032     356.003    -285.159
  C     -409.846     354.938    -285.342
  N     -410.144     354.301    -286.494
  C     -409.498     354.864    -287.526
  C     -408.646     355.954    -287.499
  C     -408.409     356.530    -286.238
  N     -407.592     357.623    -286.052
  N     -408.205     356.264    -288.773
  C     -408.759     355.355    -289.552
  N     -409.559     354.496    -288.849
  O     -409.999     357.178    -293.981
  O     -408.111     355.593    -294.717
  H     -412.209     351.997    -288.680
  H     -409.256     357.694    -293.618
  H     -410.321     354.552    -284.445
  H     -408.612     355.279    -290.620
  H     -410.179     352.529    -288.672
  H     -412.218     354.454    -288.884
  H     -411.459     355.165    -291.091
  H     -411.343     352.154    -291.756
  H     -409.425     352.923    -293.213
  H     -407.632     358.067    -285.145
  H     -407.245     358.113    -286.866
  H     -411.035     353.453    -293.761
  P     -413.968     355.383    -291.790
  C     -416.201     354.442    -290.848
  O     -415.490     354.935    -291.981
  O     -413.523     355.852    -293.252
  O     -413.722     356.438    -290.758
  H     -413.612     356.813    -293.354
  H     -417.199     354.186    -291.137
  H     -416.231     355.197    -290.090
  H     -415.706     353.573    -290.467

 6  7  8  9  10  11  12  13  14  15  25  28  32  33  34  35 0
 6-311+G(2d,p)
 ****
 36  39  40 0
 6-311+G(2d,p)
 ****
 1  2  3  4  5  16  17  18  19  20  21  22  23  24 0
 3-21G
 ****
 26  27  29  30  31  37  38  41  42  43  44  45  46  47 0
 3-21G
 ****
 48 0
 3-21G
 ****


