%nproc=1
%NoSave
%Mem=1900MB
#P OB98/GEN NMR

erre ene a

0 1
  C      -74.071     252.988     284.024
  O      -75.077     252.373     283.244
  H      -73.120     252.483     283.834
  H      -74.307     252.902     285.090
  H      -73.973     254.041     283.746
  P      -76.569     252.936     283.422
  C      -76.546     254.943     281.799
  O      -76.928     253.587     281.993
  C      -76.387     255.246     280.309
  O      -75.013     254.964     279.926
  C      -77.297     254.398     279.410
  O      -77.723     255.190     278.294
  C      -76.374     253.296     278.917
  O      -76.828     252.712     277.700
  C      -75.047     254.048     278.814
  N      -71.616     251.606     275.945
  C      -72.511     252.574     275.656
  N      -73.377     253.190     276.493
  C      -73.209     252.750     277.759
  C      -72.339     251.770     278.202
  C      -71.516     251.175     277.227
  N      -70.626     250.166     277.506
  N      -72.502     251.565     279.561
  C      -73.444     252.413     279.927
  N      -73.917     253.135     278.864
  O      -76.786     253.830     284.598
  O      -77.435     251.591     283.415
  H      -76.782     253.394     276.994
  H      -77.165     250.994     282.690
  H      -72.548     252.895     274.615
  H      -73.829     252.529     280.938
  H      -74.959     254.627     277.885
  H      -76.312     252.502     279.672
  H      -78.170     254.001     279.932
  H      -76.549     256.319     280.143
  H      -75.602     255.148     282.318
  H      -70.071     249.796     276.745
  H      -70.531     249.830     278.451
  H      -77.325     255.577     282.235
  P      -79.072     256.046     278.411
  C      -78.212     258.424     278.928
  O      -78.769     257.558     277.947
  O      -79.809     255.917     279.707
  O      -79.955     255.485     277.192
  H      -80.880     255.379     277.492
  H      -78.057     259.393     278.502
  H      -77.276     258.028     279.263
  H      -78.884     258.502     279.757

 6  7  8  9  10  11  12  13  14  15  25  28  32  33  34  35 0
 6-311+G(2d,p)
 ****
 36  39  40 0
 6-311+G(2d,p)
 ****
 1  2  3  4  5  16  17  18  19  20  21  22  23  24 0
 3-21G
 ****
 26  27  29  30  31  37  38  41  42  43  44  45  46  47 0
 3-21G
 ****
 48 0
 3-21G
 ****


