%nproc=1
%NoSave
%Mem=1900MB
#P OB98/GEN NMR

erre ene a

0 1
  C      886.472    -133.390     409.113
  O      886.129    -134.542     409.894
  P      885.913    -134.327     411.473
  C      883.767    -134.304     412.978
  O      884.379    -134.680     411.743
  C      882.250    -134.473     412.889
  O      881.688    -133.506     411.960
  C      881.804    -135.827     412.377
  O      881.952    -136.833     413.376
  C      880.362    -135.533     411.985
  O      879.510    -135.543     413.142
  C      880.474    -134.090     411.433
  N      880.446    -134.032     409.978
  C      880.188    -132.776     409.426
  O      879.986    -131.763     410.103
  N      880.173    -132.714     408.057
  C      880.343    -133.769     407.207
  O      880.321    -133.644     405.984
  C      880.550    -135.076     407.838
  C      880.586    -135.154     409.180
  O      885.988    -132.731     411.580
  O      886.915    -135.066     412.301
  H      885.597    -132.276     410.805
  H      879.887    -134.891     413.767
  H      880.008    -131.804     407.639
  H      880.660    -135.948     407.197
  H      880.740    -136.109     409.669
  H      879.651    -133.474     411.819
  H      879.961    -136.260     411.279
  H      882.384    -136.110     411.482
  H      881.826    -134.280     413.885
  H      884.003    -133.258     413.213
  H      884.185    -134.930     413.779
  P      883.070    -137.959     413.109
  C      885.619    -138.000     413.681
  O      884.317    -137.585     414.039
  O      883.552    -137.576     411.630
  O      882.552    -139.362     413.252
  H      883.685    -136.619     411.513
  H      886.346    -137.381     414.209
  H      885.796    -137.908     412.608
  H      885.767    -139.047     413.981
  H      886.585    -133.675     408.088
  H      887.391    -132.977     409.472
  H      885.696    -132.658     409.196

 3  4  5  6  7  8  9  10  11  12  13  24  28  29  30  31  32 0
 6-311+G(2d,p)
 ****
 33  34 0
 6-311+G(2d,p)
 ****
 1  2  14  15  16  17  18  19  20  21  22  23  25  26  27 0
 3-21G
 ****
 35  36  37  38  39  40  41  42  43  44  45 0
 3-21G
 ****


