%nproc=1
%NoSave
%Mem=1900MB
#P OB98/GEN NMR

erre ene a

0 1
  C      140.350     461.294     367.263
  O      140.971     462.295     368.049
  H      139.980     461.765     366.344
  H      139.505     460.864     367.793
  H      141.070     460.520     366.994
  P      141.539     461.892     369.494
  C      144.077     462.110     369.022
  O      142.978     461.232     369.250
  C      145.141     461.941     370.105
  O      145.486     460.542     370.245
  C      146.448     462.670     369.827
  O      146.308     464.054     370.061
  C      147.384     461.941     370.784
  O      147.216     462.407     372.126
  C      146.891     460.481     370.645
  N      147.667     459.677     369.691
  C      148.834     459.103     370.185
  O      149.185     459.300     371.357
  N      149.610     458.348     369.334
  C      149.211     458.136     368.120
  N      150.007     457.377     367.312
  C      147.947     458.696     367.565
  C      147.240     459.462     368.392
  O      140.625     461.079     370.354
  O      141.892     463.300     370.177
  H      147.794     461.841     372.676
  H      141.146     463.610     370.718
  H      147.650     458.481     366.540
  H      146.306     459.899     368.069
  H      146.908     459.973     371.617
  H      148.442     462.079     370.512
  H      146.779     462.480     368.797
  H      144.708     462.255     371.069
  H      150.852     456.995     367.744
  H      143.672     463.140     369.048
  H      149.733     457.008     366.413
  H      144.514     461.943     368.037
  P      147.333     465.118     369.432
  C      145.817     465.214     367.350
  O      147.134     465.021     367.827
  O      148.745     464.991     369.897
  O      146.658     466.544     369.772
  H      146.819     466.771     370.725
  H      145.808     465.128     366.284
  H      145.475     466.188     367.632
  H      145.172     464.473     367.773

 6  7  8  9  10  11  12  13  14  15  16  26  30  31  32  33  35 0
 6-311+G(2d,p)
 ****
 37  38 0
 6-311+G(2d,p)
 ****
 1  2  3  4  5  17  18  19  20  21  22  23  24  25 0
 3-21G
 ****
 27  28  29  34  36  39  40  41  42  43  44  45  46 0
 3-21G
 ****


