%nproc=1
%NoSave
%Mem=1900MB
#P OB98/GEN NMR

erre ene a

0 1
  C      -38.208    -199.560       6.383
  O      -37.515    -198.556       7.118
  P      -38.138    -197.090       7.304
  C      -38.376    -196.740       9.845
  O      -39.016    -197.171       8.640
  C      -39.352    -196.838      11.017
  O      -39.509    -198.239      11.368
  C      -38.902    -196.151      12.314
  O      -39.184    -194.758      12.371
  C      -39.767    -196.886      13.332
  O      -41.109    -196.355      13.311
  C      -39.758    -198.315      12.794
  N      -38.280    -200.612      17.132
  C      -39.385    -199.878      16.818
  N      -39.695    -199.292      15.643
  C      -38.752    -199.547      14.725
  C      -37.577    -200.272      14.898
  C      -37.356    -200.819      16.171
  N      -36.244    -201.582      16.479
  N      -36.842    -200.294      13.715
  C      -37.568    -199.611      12.860
  N      -38.728    -199.142      13.417
  O      -38.837    -196.556       6.096
  O      -36.890    -196.188       7.752
  H      -41.096    -195.534      13.844
  H      -37.103    -195.240       7.631
  H      -40.107    -199.750      17.625
  H      -37.297    -199.427      11.831
  H      -40.724    -198.824      12.929
  H      -39.399    -196.776      14.360
  H      -37.844    -196.352      12.526
  H      -40.329    -196.456      10.690
  H      -38.067    -195.698       9.713
  H      -36.236    -202.044      17.373
  H      -35.645    -201.873      15.720
  H      -37.477    -197.345      10.024
  P      -38.036    -193.805      12.957
  C      -38.168    -191.809      11.260
  O      -37.480    -192.967      11.711
  O      -36.997    -194.506      13.780
  O      -38.881    -192.717      13.789
  H      -39.430    -192.127      13.254
  H      -37.542    -191.303      10.518
  H      -38.356    -191.113      12.097
  H      -39.115    -192.098      10.798
  H      -37.629    -200.460       6.375
  H      -38.360    -199.225       5.378
  H      -39.155    -199.749       6.843

 3  4  5  6  7  8  9  10  11  12  22  25  29  30  31  32 0
 6-311+G(2d,p)
 ****
 33  36  37 0
 6-311+G(2d,p)
 ****
 1  2  13  14  15  16  17  18  19  20  21  23  24  26 0
 3-21G
 ****
 27  28  34  35  38  39  40  41  42  43  44  45  46  47  48 0
 3-21G
 ****


