%nproc=1
%NoSave
%Mem=1900MB
#P OB98/GEN NMR

erre ene a

0 1
  C     -406.426    -895.287    1138.048
  O     -407.164    -894.112    1138.336
  H     -405.408    -894.999    1137.769
  H     -406.882    -895.824    1137.214
  H     -406.375    -895.932    1138.928
  P     -408.643    -894.252    1138.933
  C     -407.953    -894.070    1141.401
  O     -408.658    -893.474    1140.338
  C     -407.262    -893.003    1142.248
  O     -406.074    -892.510    1141.570
  C     -408.125    -891.755    1142.482
  O     -409.122    -891.999    1143.452
  C     -407.051    -890.745    1142.876
  O     -406.713    -890.872    1144.267
  C     -405.858    -891.151    1141.972
  N     -405.727    -890.258    1140.822
  C     -404.821    -889.223    1140.957
  O     -404.137    -889.028    1141.965
  N     -404.740    -888.350    1139.897
  C     -405.591    -888.359    1138.797
  O     -405.650    -887.434    1138.006
  C     -406.468    -889.525    1138.682
  C     -406.516    -890.395    1139.693
  O     -409.193    -895.640    1138.971
  O     -409.530    -893.303    1137.991
  H     -410.006    -893.853    1137.352
  H     -405.950    -890.304    1144.419
  H     -404.135    -887.565    1140.010
  H     -407.092    -889.604    1137.822
  H     -407.193    -891.265    1139.645
  H     -404.926    -891.124    1142.555
  H     -407.391    -889.712    1142.725
  H     -408.575    -891.439    1141.534
  H     -406.950    -893.438    1143.211
  H     -407.186    -894.752    1140.991
  H     -408.639    -894.657    1142.026
  P     -410.565    -891.296    1143.299
  C     -411.888    -893.133    1142.093
  O     -411.687    -892.433    1143.326
  O     -410.689    -890.314    1142.172
  O     -410.770    -890.558    1144.721
  H     -411.033    -889.640    1144.561
  H     -412.656    -893.867    1142.221
  H     -410.978    -893.615    1141.804
  H     -412.181    -892.439    1141.333

 6  7  8  9  10  11  12  13  14  15  16  27  31  32  33  34  35 0
 6-311+G(2d,p)
 ****
 36  37 0
 6-311+G(2d,p)
 ****
 1  2  3  4  5  17  18  19  20  21  22  23  24  25 0
 3-21G
 ****
 26  28  29  30  38  39  40  41  42  43  44  45 0
 3-21G
 ****


