%nproc=1
%NoSave
%Mem=1900MB
#P OB98/GEN NMR

erre ene a

0 1
  C     -334.688    -494.927     186.821
  O     -335.266    -494.549     188.078
  P     -336.203    -493.260     188.265
  C     -337.934    -493.983     190.038
  O     -336.762    -493.222     189.771
  C     -337.598    -495.408     190.489
  O     -336.698    -495.371     191.640
  C     -338.823    -496.250     190.891
  O     -338.573    -497.583     190.419
  C     -338.771    -496.180     192.408
  O     -339.519    -497.189     193.055
  C     -337.259    -496.269     192.625
  N     -336.792    -495.920     193.959
  C     -336.418    -496.970     194.812
  O     -336.529    -498.145     194.472
  N     -335.936    -496.657     196.062
  C     -335.838    -495.419     196.437
  N     -335.342    -495.186     197.681
  C     -336.240    -494.290     195.583
  C     -336.696    -494.612     194.372
  O     -337.277    -493.146     187.233
  O     -335.217    -491.998     188.192
  H     -335.676    -491.258     187.749
  H     -339.392    -497.090     194.016
  H     -336.133    -493.274     195.927
  H     -336.985    -493.831     193.671
  H     -336.914    -497.277     192.368
  H     -339.174    -495.213     192.728
  H     -339.762    -495.895     190.458
  H     -337.047    -495.898     189.679
  H     -335.070    -495.988     198.233
  H     -338.528    -494.035     189.120
  H     -335.216    -494.263     198.069
  H     -338.527    -493.470     190.801
  P     -339.154    -498.040     188.997
  C     -337.084    -499.490     188.376
  O     -338.475    -499.442     188.623
  O     -338.404    -497.033     187.997
  O     -340.633    -497.935     188.821
  H     -338.941    -496.928     187.186
  H     -336.665    -500.361     188.894
  H     -336.564    -498.597     188.730
  H     -336.913    -499.601     187.304
  H     -334.106    -495.816     186.949
  H     -334.059    -494.138     186.466
  H     -335.467    -495.109     186.111

 3  4  5  6  7  8  9  10  11  12  13  24  27  28  29  30  32 0
 6-311+G(2d,p)
 ****
 34  35 0
 6-311+G(2d,p)
 ****
 1  2  14  15  16  17  18  19  20  21  22  23  25  26 0
 3-21G
 ****
 31  33  36  37  38  39  40  41  42  43  44  45  46 0
 3-21G
 ****


