%nproc=1
%NoSave
%Mem=1900MB
#P OB98/GEN NMR

erre ene a

0 1
  C     -150.082     149.777     393.653
  O     -150.982     149.631     394.730
  H     -150.326     149.031     392.891
  H     -149.057     149.610     393.986
  H     -150.176     150.772     393.208
  P     -150.802     150.569     396.018
  C     -153.310     151.180     395.955
  O     -152.237     150.659     396.734
  C     -154.641     150.975     396.688
  O     -154.988     149.569     396.586
  C     -154.559     151.349     398.174
  O     -155.578     152.260     398.576
  C     -154.502     149.990     398.870
  O     -154.986     149.992     400.196
  C     -155.267     149.074     397.908
  N     -154.899     147.662     398.016
  C     -155.626     146.877     398.904
  O     -156.566     147.276     399.593
  N     -155.243     145.561     398.982
  C     -154.226     144.978     398.290
  O     -153.929     143.793     398.399
  C     -153.471     145.867     397.390
  C     -153.837     147.147     397.295
  O     -150.146     151.885     395.770
  O     -149.949     149.671     397.035
  H     -154.683     150.826     400.614
  H     -149.029     149.994     397.062
  H     -155.774     144.980     399.608
  H     -152.647     145.438     396.835
  H     -153.302     147.830     396.640
  H     -156.343     149.147     398.078
  H     -153.456     149.668     398.912
  H     -153.633     151.892     398.389
  H     -155.419     151.546     396.167
  H     -153.317     150.656     394.997
  H     -153.147     152.250     395.777
  P     -155.451     153.850     398.536
  C     -157.983     154.329     398.024
  O     -156.871     154.490     398.898
  O     -154.738     154.422     397.356
  O     -154.568     154.195     399.846
  H     -154.043     154.993     399.619
  H     -158.836     154.825     398.437
  H     -158.198     153.287     397.908
  H     -157.751     154.753     397.070

 6  7  8  9  10  11  12  13  14  15  16  26  31  32  33  34  35 0
 6-311+G(2d,p)
 ****
 36  37 0
 6-311+G(2d,p)
 ****
 1  2  3  4  5  17  18  19  20  21  22  23  24  25 0
 3-21G
 ****
 27  28  29  30  38  39  40  41  42  43  44  45 0
 3-21G
 ****


