%nproc=1
%NoSave
%Mem=1900MB
#P OB98/GEN NMR

erre ene a

0 1
  C      156.968     -75.655      72.037
  O      157.070     -76.963      71.510
  H      155.927     -75.430      72.291
  H      157.572     -75.595      72.945
  H      157.342     -74.924      71.315
  P      156.271     -77.250      70.147
  C      154.395     -78.418      71.507
  O      154.729     -77.415      70.559
  C      152.912     -78.763      71.408
  O      152.593     -79.853      72.297
  C      151.968     -77.629      71.794
  O      151.808     -76.692      70.738
  C      150.683     -78.404      72.049
  O      150.050     -78.722      70.796
  C      151.211     -79.686      72.713
  N      148.137     -79.863      76.800
  C      147.892     -80.004      75.480
  N      148.765     -79.965      74.452
  C      150.016     -79.773      74.902
  C      150.426     -79.635      76.218
  C      149.422     -79.679      77.198
  N      149.678     -79.463      78.545
  N      151.792     -79.437      76.286
  C      152.194     -79.440      75.032
  N      151.160     -79.647      74.161
  O      156.731     -78.742      69.775
  O      156.546     -76.294      69.035
  H      149.870     -77.874      70.349
  H      157.455     -78.701      69.124
  H      146.852     -80.164      75.209
  H      153.216     -79.293      74.710
  H      150.666     -80.576      72.382
  H      149.957     -77.846      72.649
  H      152.283     -77.141      72.722
  H      152.712     -79.102      70.382
  H      154.614     -78.055      72.516
  H      148.892     -79.063      79.049
  H      150.592     -79.073      78.738
  H      155.004     -79.305      71.308
  P      151.822     -75.131      71.115
  C      149.248     -74.873      71.183
  O      150.462     -74.846      71.922
  O      151.582     -74.422      69.701
  O      153.072     -74.645      71.760
  H      152.307     -73.795      69.520
  H      148.427     -74.669      71.838
  H      149.120     -75.840      70.742
  H      149.283     -74.131      70.413

 6  7  8  9  10  11  12  13  14  15  25  28  32  33  34  35 0
 6-311+G(2d,p)
 ****
 36  39  40 0
 6-311+G(2d,p)
 ****
 1  2  3  4  5  16  17  18  19  20  21  22  23  24 0
 3-21G
 ****
 26  27  29  30  31  37  38  41  42  43  44  45  46  47  48 0
 3-21G
 ****


