%nproc=1
%NoSave
%Mem=1900MB
#P OB98/GEN NMR

erre ene a

0 1
  C      769.597      50.394     329.348
  O      769.458      51.279     330.446
  H      769.494      49.371     329.705
  H      770.586      50.511     328.897
  H      768.820      50.593     328.605
  P      769.639      52.842     330.131
  C      771.851      53.353     331.402
  O      770.430      53.468     331.385
  C      772.379      53.471     332.828
  O      772.110      54.782     333.362
  C      771.776      52.462     333.803
  O      772.452      51.223     333.732
  C      771.998      53.174     335.132
  O      773.361      53.000     335.585
  C      771.732      54.635     334.764
  N      767.904      54.933     338.050
  C      769.151      54.346     338.184
  N      769.408      53.723     339.353
  N      770.063      54.361     337.248
  C      769.651      54.969     336.112
  C      768.441      55.581     335.858
  C      767.462      55.611     336.922
  O      766.372      56.180     336.899
  N      768.403      56.105     334.588
  C      769.572      55.780     334.065
  N      770.361      55.077     334.947
  O      768.160      53.432     330.295
  O      770.201      53.164     328.788
  H      773.622      52.068     335.449
  H      768.017      54.122     329.616
  H      767.256      54.918     338.819
  H      769.902      56.024     333.061
  H      772.362      55.333     335.341
  H      771.359      52.768     335.918
  H      768.670      53.434     339.981
  H      770.698      52.343     333.632
  H      770.296      53.231     339.419
  H      773.472      53.355     332.782
  H      772.272      54.152     330.787
  H      772.138      52.383     330.971
  P      771.579      49.880     333.857
  C      771.659      49.134     336.346
  O      772.203      48.988     335.042
  O      771.974      49.068     332.531
  O      770.106      50.100     333.930
  H      771.236      49.108     331.889
  H      772.172      48.482     337.021
  H      770.619      48.883     336.329
  H      771.777      50.147     336.670

 6  7  8  9  10  11  12  13  14  15  26  29  33  34 0
 6-311+G(2d,p)
 ****
 36  38  39  40  41 0
 6-311+G(2d,p)
 ****
 1  2  3  4  5  16  17  18  19  20  21  22  23  24  25 0
 3-21G
 ****
 27  28  30  31  32  35  37  42  43  44  45  46  47 0
 3-21G
 ****
 48  49 0
 3-21G
 ****


