%nproc=1
%NoSave
%Mem=1900MB
#P OB98/GEN NMR

erre ene a

0 1
  C     -321.103     149.538    -119.215
  O     -322.214     149.111    -118.454
  H     -321.311     149.423    -120.283
  H     -320.916     150.596    -119.006
  H     -320.212     148.963    -118.944
  P     -322.656     147.577    -118.642
  C     -321.347     146.633    -116.617
  O     -322.622     146.905    -117.182
  C     -321.507     145.857    -115.310
  O     -321.962     146.784    -114.287
  C     -322.514     144.694    -115.388
  O     -321.936     143.490    -114.870
  C     -323.646     145.123    -114.472
  O     -324.249     144.030    -113.788
  C     -322.952     146.088    -113.515
  N     -326.614     146.581    -110.001
  C     -325.614     145.681    -110.126
  N     -324.613     145.663    -111.031
  C     -324.691     146.729    -111.848
  C     -325.639     147.738    -111.825
  C     -326.650     147.629    -110.859
  N     -327.702     148.513    -110.763
  N     -325.396     148.663    -112.827
  C     -324.344     148.193    -113.469
  N     -323.892     147.018    -112.925
  O     -321.396     146.924    -119.389
  O     -323.913     147.385    -119.417
  H     -324.820     144.402    -113.091
  H     -321.687     146.584    -120.256
  H     -325.622     144.864    -109.411
  H     -323.900     148.633    -114.356
  H     -322.436     145.558    -112.703
  H     -324.413     145.631    -115.068
  H     -322.869     144.515    -116.406
  H     -320.520     145.488    -114.998
  H     -320.826     147.577    -116.411
  H     -328.444     148.296    -110.121
  H     -327.796     149.231    -111.470
  H     -320.754     146.055    -117.334
  P     -321.283     142.491    -115.953
  C     -318.768     142.526    -115.296
  O     -319.995     141.803    -115.280
  O     -320.671     143.489    -117.044
  O     -322.264     141.548    -116.564
  H     -321.036     143.286    -117.927
  H     -318.007     141.947    -114.816
  H     -318.893     143.452    -114.775
  H     -318.482     142.722    -116.308

 6  7  8  9  10  11  12  13  14  15  25  28  32  33  34  35 0
 6-311+G(2d,p)
 ****
 36  39  40 0
 6-311+G(2d,p)
 ****
 1  2  3  4  5  16  17  18  19  20  21  22  23  24 0
 3-21G
 ****
 26  27  29  30  31  37  38  41  42  43  44  45  46  47  48 0
 3-21G
 ****


