%nproc=1
%NoSave
%Mem=1900MB
#P OB98/GEN NMR

erre ene a

0 1
  C      212.540    -127.506      83.517
  O      212.882    -128.111      84.748
  H      211.495    -127.721      83.281
  H      212.663    -126.424      83.613
  H      213.188    -127.866      82.710
  P      213.067    -129.706      84.756
  C      214.727    -131.263      86.012
  O      213.988    -130.050      86.030
  C      216.081    -131.080      86.704
  O      216.970    -130.372      85.790
  C      216.017    -130.274      88.014
  O      216.937    -130.857      88.947
  C      216.535    -128.901      87.600
  O      217.100    -128.182      88.693
  C      217.543    -129.274      86.521
  N      219.326    -124.506      86.438
  C      219.429    -125.489      87.358
  N      218.967    -126.757      87.278
  C      218.405    -126.985      86.073
  C      218.240    -126.082      85.031
  C      218.713    -124.777      85.261
  N      218.554    -123.749      84.358
  N      217.567    -126.680      83.984
  C      217.315    -127.909      84.390
  N      217.801    -128.138      85.648
  O      214.051    -129.945      83.509
  O      211.810    -130.501      84.638
  H      217.423    -127.320      88.366
  H      213.524    -130.043      82.694
  H      219.933    -125.229      88.283
  H      216.761    -128.657      83.834
  H      218.507    -129.599      86.930
  H      215.709    -128.309      87.189
  H      215.020    -130.230      88.456
  H      216.520    -132.069      86.875
  H      214.894    -131.560      84.972
  H      218.834    -122.820      84.647
  H      218.004    -123.906      83.528
  H      214.153    -132.049      86.513
  P      216.319    -131.728      90.143
  C      217.093    -134.091      90.940
  O      217.449    -132.738      90.675
  O      215.283    -132.695      89.398
  O      215.655    -130.910      91.205
  H      214.523    -132.883      89.978
  H      217.954    -134.625      91.284
  H      216.726    -134.545      90.043
  H      216.332    -134.119      91.691

 6  7  8  9  10  11  12  13  14  15  25  28  32  33  34  35 0
 6-311+G(2d,p)
 ****
 36  39  40 0
 6-311+G(2d,p)
 ****
 1  2  3  4  5  16  17  18  19  20  21  22  23  24 0
 3-21G
 ****
 26  27  29  30  31  37  38  41  42  43  44  45  46  47 0
 3-21G
 ****
 48 0
 3-21G
 ****


