%nproc=1
%NoSave
%Mem=1900MB
#P OB98/GEN NMR

erre ene a

0 1
  C     -156.763      86.758    -166.190
  O     -157.931      87.530    -165.984
  H     -156.205      86.711    -165.251
  H     -156.133      87.225    -166.951
  H     -157.032      85.744    -166.494
  P     -158.906      87.701    -167.247
  C     -159.033      90.282    -167.090
  O     -159.720      89.048    -166.936
  C     -159.993      91.373    -167.555
  O     -160.445      91.114    -168.895
  C     -161.254      91.503    -166.710
  O     -161.000      92.249    -165.531
  C     -162.163      92.255    -167.669
  O     -161.833      93.658    -167.655
  C     -161.791      91.643    -169.032
  N     -163.911      89.433    -173.152
  C     -163.205      90.575    -173.010
  N     -162.710      91.123    -171.879
  C     -163.006      90.363    -170.813
  C     -163.718      89.174    -170.804
  C     -164.174      88.701    -172.045
  N     -164.885      87.529    -172.187
  N     -163.828      88.679    -169.521
  C     -163.148      89.527    -168.776
  N     -162.662      90.583    -169.505
  O     -159.715      86.504    -167.606
  O     -157.869      88.182    -168.369
  H     -160.919      93.748    -167.982
  H     -157.210      88.788    -167.988
  H     -163.009      91.125    -173.927
  H     -162.964      89.414    -167.715
  H     -161.766      92.401    -169.824
  H     -163.216      92.174    -167.393
  H     -161.694      90.523    -166.495
  H     -159.439      92.322    -167.577
  H     -158.214      90.176    -167.809
  H     -165.318      87.353    -173.080
  H     -165.186      87.051    -171.350
  H     -158.606      90.544    -166.117
  P     -161.208      91.590    -164.085
  C     -163.342      92.829    -163.364
  O     -161.937      92.698    -163.179
  O     -159.982      91.001    -163.478
  O     -162.349      90.494    -164.304
  H     -162.162      89.697    -163.770
  H     -163.718      93.591    -162.713
  H     -163.820      91.899    -163.138
  H     -163.545      93.096    -164.380

 6  7  8  9  10  11  12  13  14  15  25  28  32  33  34  35 0
 6-311+G(2d,p)
 ****
 36  39  40 0
 6-311+G(2d,p)
 ****
 1  2  3  4  5  16  17  18  19  20  21  22  23  24 0
 3-21G
 ****
 26  27  29  30  31  37  38  41  42  43  44  45  46  47 0
 3-21G
 ****
 48 0
 3-21G
 ****


