%nproc=1
%NoSave
%Mem=1900MB
#P OB98/GEN NMR

erre ene a

0 1
  C      -69.731      40.222      42.648
  O      -69.427      40.174      41.271
  H      -70.815      40.298      42.763
  H      -69.267      41.103      43.100
  H      -69.387      39.321      43.161
  P      -67.953      39.742      40.820
  C      -68.983      37.718      39.595
  O      -68.109      38.833      39.508
  C      -68.544      36.606      38.634
  O      -68.673      37.084      37.271
  C      -67.071      36.237      38.840
  O      -66.801      34.885      38.479
  C      -66.355      37.160      37.866
  O      -65.065      36.683      37.487
  C      -67.355      37.217      36.713
  N      -67.244      39.326      32.074
  C      -67.140      37.996      32.431
  N      -66.989      37.112      31.417
  N      -67.158      37.574      33.668
  C      -67.241      38.573      34.579
  C      -67.326      39.927      34.349
  C      -67.340      40.379      32.974
  O      -67.406      41.547      32.603
  N      -67.386      40.633      35.525
  C      -67.332      39.709      36.464
  N      -67.269      38.442      35.939
  O      -67.518      38.673      41.931
  O      -66.958      40.857      40.711
  H      -64.616      37.404      37.007
  H      -66.548      38.601      41.971
  H      -67.253      39.594      31.106
  H      -67.353      39.902      37.529
  H      -67.198      36.380      36.022
  H      -66.211      38.127      38.354
  H      -66.773      37.413      30.479
  H      -66.732      36.406      39.859
  H      -66.604      36.198      31.667
  H      -69.209      35.741      38.731
  H      -69.983      38.075      39.337
  H      -69.026      37.347      40.620
  P      -66.478      33.833      39.642
  C      -67.474      31.551      38.744
  O      -66.357      32.365      39.027
  O      -67.829      33.781      40.493
  O      -65.297      34.192      40.488
  H      -67.677      34.122      41.394
  H      -67.142      30.617      38.340
  H      -68.103      32.044      38.032
  H      -68.024      31.375      39.645

 6  7  8  9  10  11  12  13  14  15  26  29  33  34 0
 6-311+G(2d,p)
 ****
 36  38  39  40  41 0
 6-311+G(2d,p)
 ****
 1  2  3  4  5  16  17  18  19  20  21  22  23  24  25 0
 3-21G
 ****
 27  28  30  31  32  35  37  42  43  44  45  46  47 0
 3-21G
 ****
 48  49 0
 3-21G
 ****


