%nproc=1
%NoSave
%Mem=1900MB
#P OB98/GEN NMR

erre ene a

0 1
  C     -899.160     102.729    -890.553
  O     -899.650     101.704    -891.383
  H     -900.000     103.287    -890.123
  H     -898.540     103.430    -891.123
  H     -898.570     102.293    -889.733
  P     -898.560     100.855    -892.193
  C     -896.630     101.602    -893.793
  O     -897.850     101.946    -893.143
  C     -896.760     101.831    -895.293
  O     -897.290     103.160    -895.553
  C     -895.450     101.760    -896.083
  O     -895.000     100.432    -896.283
  C     -895.870     102.434    -897.353
  O     -896.690     101.535    -898.143
  C     -896.720     103.620    -896.813
  N     -895.930     104.827    -896.583
  C     -896.170     105.915    -897.443
  O     -897.020     105.826    -898.323
  N     -895.440     107.061    -897.273
  C     -894.550     107.145    -896.333
  N     -893.840     108.287    -896.233
  C     -894.250     106.025    -895.403
  C     -894.980     104.904    -895.593
  O     -899.440     100.001    -893.233
  O     -897.620     100.031    -891.363
  H     -897.440     101.272    -897.563
  H     -898.850      99.551    -893.873
  H     -893.490     106.139    -894.633
  H     -894.820     104.068    -894.933
  H     -897.540     103.850    -897.483
  H     -895.040     102.733    -897.973
  H     -894.680     102.362    -895.573
  H     -897.490     101.097    -895.683
  H     -894.020     109.015    -896.933
  H     -896.420     100.545    -893.593
  H     -893.030     108.398    -895.633
  H     -895.810     102.206    -893.403
  P     -893.460     100.245    -896.723
  C     -892.160     100.360    -898.963
  O     -893.390     100.548    -898.303
  O     -893.250      98.643    -896.633
  O     -892.470     101.000    -895.873
  H     -892.340      98.453    -896.353
  H     -892.271     100.600    -900.000
  H     -891.854      99.339    -898.864
  H     -891.420     100.998    -898.527

 6  7  8  9  10  11  12  13  14  15  16  26  30  31  32  33  35 0
 6-311+G(2d,p)
 ****
 37  38 0
 6-311+G(2d,p)
 ****
 1  2  3  4  5  17  18  19  20  21  22  23  24  25 0
 3-21G
 ****
 27  28  29  34  36  39  40  41  42  43  44  45  46 0
 3-21G
 ****


