%nproc=1
%NoSave
%Mem=1900MB
#P OB98/GEN NMR

erre ene a

0 1
  C     -374.490     299.809    -271.724
  O     -375.615     300.672    -271.660
  P     -376.710     300.369    -270.526
  C     -378.966     300.608    -271.797
  O     -378.003     301.214    -270.938
  C     -379.862     301.664    -272.431
  O     -380.794     302.165    -271.454
  C     -379.122     302.882    -272.957
  O     -378.501     302.591    -274.191
  C     -380.244     303.906    -273.046
  O     -380.930     303.803    -274.307
  C     -381.167     303.497    -271.875
  N     -381.122     304.442    -270.773
  C     -382.368     304.901    -270.315
  O     -383.406     304.519    -270.859
  N     -382.390     305.812    -269.283
  C     -381.281     306.223    -268.764
  N     -381.365     307.122    -267.743
  C     -379.949     305.781    -269.228
  C     -379.949     304.898    -270.232
  O     -376.140     301.144    -269.249
  O     -376.938     298.917    -270.252
  H     -380.227     303.882    -274.992
  H     -376.453     300.738    -268.425
  H     -379.053     306.156    -268.761
  H     -379.014     304.518    -270.634
  H     -382.213     303.428    -272.223
  H     -379.867     304.931    -272.969
  H     -378.372     303.216    -272.222
  H     -380.446     301.188    -273.238
  H     -382.291     307.415    -267.448
  H     -379.582     299.914    -271.222
  H     -380.555     307.484    -267.255
  H     -378.435     300.033    -272.571
  P     -377.115     303.323    -274.524
  C     -377.826     303.957    -276.900
  O     -376.946     303.187    -276.107
  O     -376.033     302.263    -273.983
  O     -376.908     304.680    -273.943
  H     -375.138     302.645    -274.033
  H     -377.511     303.897    -277.949
  H     -377.815     305.004    -276.590
  H     -378.845     303.560    -276.817
  H     -373.845     300.122    -272.518
  H     -374.819     298.807    -271.906
  H     -373.958     299.847    -270.796

 3  4  5  6  7  8  9  10  11  12  13  21  23  27  28  29  30  32 0
 6-311+G(2d,p)
 ****
 34  35 0
 6-311+G(2d,p)
 ****
 1  2  14  15  16  17  18  19  20  22  24  25  26 0
 3-21G
 ****
 31  33  36  37  38  39  40  41  42  43  44  45  46 0
 3-21G
 ****


