%nproc=1
%NoSave
%Mem=1900MB
#P OB98/GEN NMR

erre ene a

0 1
  C     -144.008    -187.861    -128.259
  O     -144.757    -187.589    -129.423
  H     -144.412    -188.758    -127.784
  H     -144.095    -187.023    -127.561
  H     -142.955    -188.034    -128.496
  P     -144.169    -186.557    -130.495
  C     -144.916    -187.856    -132.596
  O     -145.071    -186.680    -131.817
  C     -145.742    -187.778    -133.886
  O     -147.152    -187.817    -133.560
  C     -145.487    -186.448    -134.602
  O     -145.662    -186.557    -136.013
  C     -146.571    -185.546    -134.035
  O     -146.863    -184.429    -134.872
  C     -147.725    -186.536    -133.884
  N     -151.494    -183.387    -132.529
  C     -150.679    -183.344    -133.642
  N     -150.879    -182.317    -134.497
  N     -149.742    -184.223    -133.888
  C     -149.604    -185.152    -132.911
  C     -150.334    -185.280    -131.751
  C     -151.394    -184.326    -131.512
  O     -152.135    -184.304    -130.532
  N     -149.890    -186.337    -130.994
  C     -148.891    -186.841    -131.688
  N     -148.686    -186.164    -132.868
  O     -142.789    -187.229    -130.954
  O     -143.960    -185.157    -130.002
  H     -147.088    -184.777    -135.755
  H     -142.175    -186.551    -131.284
  H     -152.211    -182.695    -132.396
  H     -148.290    -187.692    -131.389
  H     -148.270    -186.641    -134.832
  H     -146.220    -185.150    -133.077
  H     -151.462    -181.528    -134.262
  H     -144.491    -186.056    -134.399
  H     -150.116    -182.105    -135.145
  H     -145.537    -188.647    -134.521
  H     -145.256    -188.699    -131.984
  H     -143.860    -188.022    -132.825
  P     -144.497    -187.269    -136.852
  C     -145.860    -189.497    -137.098
  O     -145.164    -188.435    -137.726
  O     -143.654    -188.045    -135.737
  O     -143.654    -186.318    -137.635
  H     -142.813    -187.579    -135.566
  H     -146.230    -190.170    -137.843
  H     -146.680    -189.102    -136.535
  H     -145.196    -190.020    -136.442

 6  7  8  9  10  11  12  13  14  15  26  29  33  34 0
 6-311+G(2d,p)
 ****
 36  38  39  40  41 0
 6-311+G(2d,p)
 ****
 1  2  3  4  5  16  17  18  19  20  21  22  23  24  25 0
 3-21G
 ****
 27  28  30  31  32  35  37  42  43  44  45  46  47 0
 3-21G
 ****
 48  49 0
 3-21G
 ****


