%nproc=1
%NoSave
%Mem=1900MB
#P OB98/GEN NMR

erre ene a

0 1
  C      149.394    -246.958    -906.318
  O      149.503    -247.732    -905.116
  P      148.142    -248.335    -904.513
  C      148.847    -248.060    -902.017
  O      148.483    -248.956    -903.071
  C      150.011    -248.632    -901.209
  O      151.276    -248.267    -901.792
  C      150.082    -248.120    -899.777
  O      149.167    -248.808    -898.925
  C      151.515    -248.469    -899.402
  O      151.599    -249.854    -898.998
  C      152.261    -248.249    -900.730
  N      156.412    -245.719    -899.284
  C      156.019    -247.022    -899.012
  N      156.887    -247.763    -898.273
  N      154.912    -247.552    -899.432
  C      154.161    -246.703    -900.185
  C      154.432    -245.390    -900.514
  C      155.666    -244.805    -900.015
  O      156.039    -243.651    -900.194
  N      153.442    -244.855    -901.294
  C      152.589    -245.845    -901.465
  N      152.973    -246.982    -900.794
  O      147.892    -249.639    -905.417
  O      146.991    -247.387    -904.561
  H      151.171    -249.917    -898.115
  H      146.933    -249.847    -905.451
  H      157.285    -245.367    -898.929
  H      151.681    -245.790    -902.061
  H      152.979    -249.057    -900.928
  H      151.892    -247.868    -898.573
  H      157.802    -247.449    -897.982
  H      149.942    -247.029    -899.732
  H      156.645    -248.738    -898.099
  H      149.926    -249.731    -901.208
  H      147.985    -247.907    -901.358
  H      149.094    -247.091    -902.448
  P      148.125    -247.902    -898.090
  C      148.023    -249.472    -896.013
  O      147.346    -248.936    -897.134
  O      147.039    -247.490    -899.190
  O      148.736    -246.725    -897.413
  H      146.633    -246.630    -898.948
  H      148.609    -248.702    -895.493
  H      148.691    -250.280    -896.340
  H      147.285    -249.884    -895.318
  H      150.365    -246.617    -906.612
  H      148.758    -246.115    -906.143
  H      148.978    -247.564    -907.096

 3  4  5  6  7  8  9  10  11  12  23  26  30  31  33  0
 6-311+G(2d,p)
 ****
 35  36  37  38 0
 6-311+G(2d,p)
 ****
 1  2  13  14  15  16  17  18  19  20  21  22  24  25  27  28  29 0
 3-21G
 ****
 32  34  39  40  41  42  43  44  45  46  47  48  49 0
 3-21G
 ****


