%nproc=1
%NoSave
%Mem=1900MB
#P OB98/GEN NMR

erre ene a

0 1
  C      236.494     314.374     224.263
  O      237.827     314.038     223.936
  P      238.582     312.765     224.542
  C      239.570     311.976     222.270
  O      238.729     311.667     223.374
  C      239.195     311.198     220.993
  O      238.068     311.830     220.352
  C      240.350     311.247     219.989
  O      241.429     310.337     220.089
  C      239.681     311.294     218.617
  O      239.621     310.006     217.995
  C      238.268     311.797     218.932
  N      236.546     314.428     214.945
  C      236.411     313.080     215.219
  N      235.926     312.305     214.226
  N      236.747     312.537     216.365
  C      237.312     313.410     217.230
  C      237.482     314.771     217.081
  C      237.068     315.360     215.820
  O      237.248     316.536     215.505
  N      238.151     315.327     218.140
  C      238.424     314.302     218.919
  N      237.972     313.113     218.392
  O      238.154     312.311     225.906
  O      240.091     313.322     224.669
  H      239.152     310.108     217.143
  H      240.490     312.912     225.456
  H      236.339     314.772     214.012
  H      238.979     314.361     219.848
  H      237.517     311.110     218.529
  H      240.238     311.949     217.937
  H      235.792     312.663     213.282
  H      240.826     312.233     220.101
  H      235.968     311.299     214.329
  H      238.865     310.176     221.237
  H      240.598     311.757     222.566
  H      239.512     313.050     222.057
  P      242.984     310.710     220.190
  C      243.599     310.124     222.605
  O      243.295     311.170     221.692
  O      243.116     312.074     219.365
  O      243.913     309.681     219.635
  H      244.038     312.203     219.070
  H      243.497     310.508     223.629
  H      244.629     309.785     222.456
  H      242.914     309.276     222.472
  H      236.210     315.261     223.736
  H      236.417     314.545     225.317
  H      235.845     313.571     223.984

 3  4  5  6  7  8  9  10  11  12  23  26  30  31 0
 6-311+G(2d,p)
 ****
 33  35  36  37  38 0
 6-311+G(2d,p)
 ****
 1  2  13  14  15  16  17  18  19  20  21  22  24  25 0
 3-21G
 ****
 27  28  29  32  34  39  40  41  42  43  44  45  46  47  48  49 0
 3-21G
 ****


