%nproc=1
%NoSave
%Mem=1900MB
#P OB98/GEN NMR

erre ene a

0 1
  C     1191.792    -413.562    1224.380
  O     1193.006    -414.156    1223.985
  H     1191.718    -413.586    1225.470
  H     1190.943    -414.121    1223.961
  H     1191.751    -412.522    1224.043
  P     1193.261    -414.323    1222.413
  C     1195.136    -412.534    1222.212
  O     1193.806    -412.910    1221.880
  C     1195.846    -411.993    1220.972
  O     1195.221    -410.730    1220.552
  C     1197.309    -411.669    1221.158
  O     1198.132    -412.829    1221.127
  C     1197.579    -410.729    1219.992
  O     1197.869    -411.457    1218.796
  C     1196.245    -409.960    1219.872
  N     1196.350    -408.605    1220.407
  C     1196.143    -407.592    1219.491
  O     1195.890    -407.793    1218.291
  N     1196.285    -406.311    1219.976
  C     1196.637    -405.974    1221.248
  O     1196.812    -404.800    1221.588
  C     1196.855    -407.096    1222.170
  C     1196.726    -408.346    1221.724
  O     1191.784    -414.411    1221.802
  O     1194.096    -415.498    1222.026
  H     1191.589    -415.333    1221.540
  H     1198.638    -412.023    1219.010
  H     1196.131    -405.564    1219.320
  H     1197.161    -406.862    1223.175
  H     1196.884    -409.181    1222.385
  H     1195.927    -409.895    1218.825
  H     1198.418    -410.084    1220.202
  H     1197.456    -411.118    1222.112
  H     1195.713    -412.713    1220.144
  H     1195.707    -413.400    1222.582
  H     1195.117    -411.776    1223.009
  P     1199.450    -412.845    1222.043
  C     1198.051    -413.483    1224.193
  O     1198.937    -412.582    1223.554
  O     1200.151    -411.471    1221.612
  O     1200.279    -414.079    1221.859
  H     1199.499    -410.811    1221.276
  H     1197.835    -413.131    1225.180
  H     1198.506    -414.450    1224.251
  H     1197.143    -413.549    1223.631

 6  7  8  9  10  11  12  13  14  15  16  27  31  32  33  34  35 0
 6-311+G(2d,p)
 ****
 36  37 0
 6-311+G(2d,p)
 ****
 1  2  3  4  5  17  18  19  20  21  22  23  24  25 0
 3-21G
 ****
 26  28  29  30  38  39  40  41  42  43  44  45 0
 3-21G
 ****


