%nproc=1
%NoSave
%Mem=1900MB
#P OB98/GEN NMR

erre ene a

0 1
  C     -154.718    -523.538    -549.127
  O     -154.557    -522.206    -549.570
  H     -154.803    -524.191    -549.998
  H     -155.630    -523.623    -548.532
  H     -153.854    -523.853    -548.534
  P     -154.179    -521.105    -548.469
  C     -151.584    -521.248    -548.343
  O     -152.716    -520.558    -548.854
  C     -150.312    -520.458    -548.652
  O     -149.266    -520.891    -547.735
  C     -149.784    -520.656    -550.079
  O     -149.224    -519.417    -550.530
  C     -148.667    -521.667    -549.892
  O     -147.690    -521.643    -550.926
  C     -148.111    -521.238    -548.529
  N     -147.325    -522.289    -547.887
  C     -145.940    -522.176    -547.941
  O     -145.331    -521.218    -548.414
  N     -145.242    -523.238    -547.419
  C     -145.778    -524.368    -546.882
  O     -145.096    -525.290    -546.446
  C     -147.246    -524.433    -546.860
  C     -147.941    -523.406    -547.356
  O     -153.913    -521.984    -547.159
  O     -155.199    -520.039    -548.246
  H     -154.737    -522.100    -546.652
  H     -148.091    -522.053    -551.717
  H     -144.238    -523.170    -547.452
  H     -147.706    -525.323    -546.453
  H     -149.027    -523.432    -547.377
  H     -147.502    -520.336    -548.632
  H     -149.084    -522.680    -549.844
  H     -150.538    -521.007    -550.791
  H     -150.497    -519.397    -548.445
  H     -151.514    -522.231    -548.816
  H     -151.698    -521.379    -547.260
  P     -149.778    -518.822    -551.915
  C     -151.642    -517.268    -550.928
  O     -150.374    -517.378    -551.557
  O     -151.070    -519.738    -552.153
  O     -148.768    -518.855    -553.013
  H     -151.523    -519.976    -551.323
  H     -151.873    -516.235    -550.768
  H     -151.619    -517.778    -549.988
  H     -152.390    -517.708    -551.554

 6  7  8  9  10  11  12  13  14  15  16  27  31  32  33  34  35 0
 6-311+G(2d,p)
 ****
 36  37 0
 6-311+G(2d,p)
 ****
 1  2  3  4  5  17  18  19  20  21  22  23  24  25 0
 3-21G
 ****
 26  28  29  30  38  39  40  41  42  43  44  45 0
 3-21G
 ****


