%nproc=1
%NoSave
%Mem=1900MB
#P OB98/GEN NMR

erre ene a

0 1
  C      298.075    -402.266     306.295
  O      298.592    -403.541     306.715
  P      297.862    -404.918     306.328
  C      298.229    -406.293     308.487
  O      298.588    -406.124     307.114
  C      299.441    -406.651     309.344
  O      300.193    -405.465     309.679
  C      299.101    -407.318     310.673
  O      298.795    -408.693     310.475
  C      300.365    -407.045     311.481
  O      301.397    -407.992     311.140
  C      300.753    -405.642     311.002
  N      301.069    -403.751     315.743
  C      301.678    -404.800     315.152
  N      301.534    -405.243     313.878
  C      300.676    -404.465     313.199
  C      299.974    -403.365     313.672
  C      300.192    -403.007     315.017
  N      299.561    -401.947     315.629
  N      299.164    -402.837     312.689
  C      299.386    -403.596     311.628
  N      300.296    -404.588     311.885
  O      297.719    -405.147     304.857
  O      296.426    -404.832     307.029
  H      302.249    -407.609     311.425
  H      295.777    -405.359     306.523
  H      302.369    -405.357     315.773
  H      298.927    -403.462     310.663
  H      301.836    -405.536     310.902
  H      300.201    -407.119     312.564
  H      298.252    -406.812     311.143
  H      300.100    -407.293     308.750
  H      297.482    -407.090     308.550
  H      299.740    -401.781     316.605
  H      298.871    -401.427     315.107
  H      297.772    -405.354     308.840
  P      297.518    -409.349     311.185
  C      298.999    -411.373     311.739
  O      297.759    -410.932     311.215
  O      296.195    -408.905     310.661
  O      297.694    -408.935     312.729
  H      296.817    -408.863     313.145
  H      299.773    -411.274     310.973
  H      298.908    -412.433     312.021
  H      299.277    -410.792     312.620
  H      298.711    -401.486     306.659
  H      297.088    -402.134     306.687
  H      298.042    -402.229     305.226

 3  4  5  6  7  8  9  10  11  12  22  25  29  30  31  32 0
 6-311+G(2d,p)
 ****
 33  36  37 0
 6-311+G(2d,p)
 ****
 1  2  13  14  15  16  17  18  19  20  21  23  24  26 0
 3-21G
 ****
 27  28  34  35  38  39  40  41  42  43  44  45  46  47  48 0
 3-21G
 ****


