%nproc=1
%NoSave
%Mem=1900MB
#P OB98/GEN NMR

erre ene a

0 1
  C      522.912      86.173    -559.274
  O      522.473      87.339    -559.947
  P      520.974      87.340    -560.520
  C      520.130      89.712    -559.850
  O      520.637      88.862    -560.893
  C      520.614      91.145    -560.058
  O      522.001      91.261    -559.670
  C      520.557      91.612    -561.505
  O      519.240      91.946    -561.865
  C      521.510      92.810    -561.469
  O      520.818      94.009    -561.058
  C      522.550      92.375    -560.414
  N      523.843      92.036    -560.988
  C      524.688      93.133    -561.258
  O      524.307      94.279    -561.016
  N      525.904      92.878    -561.816
  C      526.264      91.672    -562.104
  N      527.502      91.468    -562.646
  C      525.404      90.487    -561.840
  C      524.203      90.756    -561.303
  O      520.087      87.062    -559.220
  O      520.721      86.331    -561.606
  H      520.266      94.262    -561.835
  H      519.238      86.622    -559.458
  H      525.731      89.507    -562.100
  H      523.506      89.964    -561.076
  H      522.707      93.170    -559.677
  H      521.953      93.006    -562.448
  H      520.945      90.839    -562.166
  H      520.014      91.812    -559.414
  H      528.067      92.294    -562.808
  H      520.507      89.341    -558.884
  H      527.876      90.559    -562.881
  H      519.034      89.662    -559.853
  P      518.896      92.109    -563.421
  C      516.351      91.779    -563.292
  O      517.426      92.707    -563.470
  O      518.657      90.575    -563.873
  O      519.936      92.783    -564.259
  H      518.559      90.533    -564.839
  H      515.415      92.334    -563.218
  H      516.509      91.183    -562.405
  H      516.288      91.121    -564.194
  H      523.922      86.309    -558.947
  H      522.862      85.337    -559.940
  H      522.284      85.992    -558.427

 3  4  5  6  7  8  9  10  11  12  13  21  23  27  28  29  30  32 0
 6-311+G(2d,p)
 ****
 34  35 0
 6-311+G(2d,p)
 ****
 1  2  14  15  16  17  18  19  20  22  24  25  26 0
 3-21G
 ****
 31  33  36  37  38  39  40  41  42  43  44  45  46 0
 3-21G
 ****


