%nproc=1
%NoSave
%Mem=1900MB
#P OB98/GEN NMR

erre ene a

0 1
  C      -50.877     303.102    -112.445
  O      -50.416     303.493    -113.741
  P      -49.312     304.648    -113.905
  C      -50.745     306.739    -113.537
  O      -49.732     305.902    -112.989
  C      -50.978     308.020    -112.722
  O      -49.802     308.873    -112.735
  C      -52.157     308.879    -113.197
  O      -52.702     309.480    -112.019
  C      -51.475     309.917    -114.068
  O      -52.281     311.066    -114.282
  C      -50.180     310.152    -113.278
  N      -49.120     310.724    -114.106
  C      -48.892     312.098    -113.982
  O      -49.602     312.780    -113.242
  N      -47.895     312.671    -114.727
  C      -47.253     311.955    -115.601
  N      -46.296     312.586    -116.334
  C      -47.523     310.521    -115.829
  C      -48.450     309.979    -115.045
  O      -48.977     304.996    -115.317
  O      -48.026     304.054    -113.149
  H      -52.677     311.332    -113.418
  H      -47.221     304.409    -113.567
  H      -46.983     309.968    -116.585
  H      -48.720     308.928    -115.131
  H      -50.362     310.828    -112.432
  H      -51.246     309.482    -115.047
  H      -52.922     308.311    -113.733
  H      -51.133     307.719    -111.678
  H      -46.160     313.576    -116.163
  H      -51.677     306.170    -113.580
  H      -45.820     312.158    -117.112
  H      -50.472     307.000    -114.564
  P      -53.689     308.688    -111.037
  C      -55.671     309.177    -112.591
  O      -54.916     308.176    -111.932
  O      -54.088     309.437    -109.806
  O      -52.909     307.337    -110.667
  H      -53.314     306.944    -109.871
  H      -56.327     308.708    -113.321
  H      -55.008     309.883    -113.111
  H      -56.276     309.722    -111.863
  H      -51.605     302.325    -112.545
  H      -51.319     303.944    -111.955
  H      -50.051     302.745    -111.866

 3  4  5  6  7  8  9  10  11  12  13  23  27  28  29  30  32 0
 6-311+G(2d,p)
 ****
 34  35 0
 6-311+G(2d,p)
 ****
 1  2  14  15  16  17  18  19  20  21  22  24  25  26 0
 3-21G
 ****
 31  33  36  37  38  39  40  41  42  43  44  45  46 0
 3-21G
 ****


