%nproc=1
%NoSave
%Mem=1900MB
#P OB98/GEN NMR

erre ene a

0 1
  C     -379.590    -272.995    -218.558
  O     -378.516    -272.635    -219.405
  P     -377.882    -273.624    -220.487
  C     -376.534    -273.388    -222.704
  O     -377.338    -272.741    -221.722
  C     -376.185    -272.474    -223.887
  O     -377.385    -272.159    -224.627
  C     -375.625    -271.137    -223.383
  O     -374.256    -271.024    -223.038
  C     -376.124    -270.097    -224.372
  O     -375.144    -269.755    -225.357
  C     -377.327    -270.785    -225.031
  N     -379.998    -266.463    -224.962
  C     -378.815    -266.744    -225.622
  N     -378.173    -265.688    -226.168
  N     -378.301    -267.948    -225.710
  C     -379.005    -268.886    -225.028
  C     -380.198    -268.733    -224.359
  C     -380.777    -267.409    -224.304
  O     -381.782    -267.102    -223.660
  N     -380.583    -269.893    -223.730
  C     -379.602    -270.733    -223.986
  N     -378.606    -270.161    -224.739
  O     -378.650    -274.872    -220.791
  O     -376.512    -274.065    -219.757
  H     -375.571    -269.173    -226.017
  H     -376.332    -274.991    -220.007
  H     -380.306    -265.505    -224.862
  H     -379.555    -271.758    -223.627
  H     -377.217    -270.785    -226.128
  H     -376.380    -269.164    -223.857
  H     -378.463    -264.734    -225.993
  H     -376.155    -270.915    -222.447
  H     -377.225    -265.823    -226.502
  H     -375.528    -272.990    -224.598
  H     -377.083    -274.272    -223.045
  H     -375.607    -273.746    -222.235
  P     -373.529    -269.715    -222.471
  C     -371.163    -269.209    -221.610
  O     -372.203    -270.174    -221.689
  O     -374.475    -269.207    -221.282
  O     -373.316    -268.623    -223.476
  H     -374.320    -268.259    -221.111
  H     -370.228    -269.705    -221.344
  H     -371.409    -268.473    -220.836
  H     -371.033    -268.698    -222.568
  H     -379.836    -272.169    -217.924
  H     -379.305    -273.833    -217.957
  H     -380.441    -273.255    -219.152

 3  4  5  6  7  8  9  10  11  12  23  26  30  31 0
 6-311+G(2d,p)
 ****
 33  35  36  37  38 0
 6-311+G(2d,p)
 ****
 1  2  13  14  15  16  17  18  19  20  21  22  24  25 0
 3-21G
 ****
 27  28  29  32  34  39  40  41  42  43  44  45  46  47  48  49 0
 3-21G
 ****


