%nproc=1
%NoSave
%Mem=1900MB
#P OB98/GEN NMR

erre ene a

0 1
  C      586.103     222.749    -519.909
  O      586.888     222.221    -520.960
  H      586.595     222.572    -518.944
  H      585.993     223.821    -520.057
  H      585.107     222.292    -519.909
  P      587.173     220.632    -520.899
  C      589.633     220.978    -520.167
  O      588.371     220.420    -519.843
  C      590.733     219.930    -520.000
  O      591.943     220.437    -520.623
  C      591.061     219.590    -518.519
  O      591.060     218.170    -518.326
  C      592.469     220.107    -518.336
  O      593.249     219.295    -517.441
  C      593.033     220.085    -519.755
  N      597.816     221.123    -518.289
  C      597.103     219.970    -518.274
  N      595.873     219.734    -518.781
  C      595.377     220.840    -519.359
  C      595.994     222.079    -519.468
  C      597.266     222.217    -518.894
  N      597.959     223.399    -518.853
  N      595.160     222.983    -520.141
  C      594.064     222.312    -520.377
  N      594.132     221.019    -519.915
  O      587.857     220.337    -522.319
  O      585.960     219.797    -520.686
  H      593.347     218.426    -517.881
  H      587.298     219.699    -522.805
  H      597.597     219.129    -517.812
  H      593.164     222.720    -520.841
  H      593.381     219.086    -520.046
  H      592.434     221.125    -517.936
  H      590.364     220.071    -517.823
  H      590.436     219.017    -520.542
  H      589.837     221.830    -519.493
  H      598.809     223.428    -518.313
  H      597.505     224.237    -519.196
  H      589.602     221.348    -521.196
  P      589.646     217.535    -517.855
  C      590.191     217.026    -515.345
  O      589.466     217.839    -516.280
  O      589.930     215.943    -517.913
  O      588.499     217.906    -518.710
  H      589.280     215.514    -518.500
  H      589.970     217.346    -514.348
  H      591.241     217.124    -515.527
  H      589.902     216.003    -515.463

 6  7  8  9  10  11  12  13  14  15  25  28  32  33  34  35 0
 6-311+G(2d,p)
 ****
 36  39  40 0
 6-311+G(2d,p)
 ****
 1  2  3  4  5  16  17  18  19  20  21  22  23  24 0
 3-21G
 ****
 26  27  29  30  31  37  38  41  42  43  44  45  46  47  48 0
 3-21G
 ****


