%nproc=1
%NoSave
%Mem=1900MB
#P OB98/GEN NMR

erre ene a

0 1
  C      357.986    -521.665    -592.893
  O      356.845    -521.756    -592.052
  P      355.773    -522.909    -592.374
  C      355.043    -523.698    -590.013
  O      354.709    -522.947    -591.169
  C      354.177    -523.283    -588.830
  O      354.568    -521.938    -588.385
  C      352.664    -523.227    -589.135
  O      351.928    -523.612    -587.957
  C      352.407    -521.765    -589.380
  O      351.030    -521.427    -589.172
  C      353.377    -521.118    -588.391
  N      352.225    -516.271    -587.575
  C      351.869    -517.391    -586.852
  N      351.018    -517.176    -585.814
  N      352.314    -518.577    -587.103
  C      353.142    -518.637    -588.172
  C      353.587    -517.591    -588.960
  C      353.079    -516.274    -588.667
  O      353.340    -515.242    -589.285
  N      354.462    -518.022    -589.924
  C      354.512    -519.327    -589.764
  N      353.716    -519.750    -588.730
  O      356.618    -524.263    -592.160
  O      355.184    -522.842    -593.750
  H      350.760    -521.881    -588.365
  H      356.835    -524.653    -593.042
  H      351.856    -515.362    -587.346
  H      355.101    -520.031    -590.366
  H      352.959    -521.118    -587.385
  H      352.663    -521.516    -590.416
  H      350.592    -516.289    -585.614
  H      352.363    -523.869    -589.982
  H      350.704    -518.001    -585.301
  H      354.384    -523.956    -587.986
  H      356.086    -523.553    -589.760
  H      354.886    -524.771    -590.220
  P      350.784    -524.730    -588.177
  C      351.453    -526.210    -586.134
  O      350.496    -525.346    -586.736
  O      351.565    -525.891    -588.951
  O      349.591    -524.235    -588.931
  H      350.943    -526.419    -589.477
  H      351.832    -525.750    -585.231
  H      352.291    -526.430    -586.820
  H      350.956    -527.155    -585.896
  H      358.608    -520.859    -592.564
  H      357.673    -521.486    -593.900
  H      358.536    -522.582    -592.848

 3  4  5  6  7  8  9  10  11  12  23  26  30  31 0
 6-311+G(2d,p)
 ****
 33  35  36  37  38 0
 6-311+G(2d,p)
 ****
 1  2  13  14  15  16  17  18  19  20  21  22  24  25 0
 3-21G
 ****
 27  28  29  32  34  39  40  41  42  43  44  45  46  47  48  49 0
 3-21G
 ****


