%nproc=1
%NoSave
%Mem=1900MB
#P OB98/GEN NMR

erre ene a

0 1
  C     -382.835    1290.208    -238.840
  O     -381.586    1290.557    -239.404
  H     -382.785    1289.176    -238.487
  H     -383.630    1290.273    -239.589
  H     -383.074    1290.860    -237.987
  P     -381.362    1292.062    -239.914
  C     -380.080    1292.620    -237.762
  O     -380.034    1292.610    -239.179
  C     -378.695    1292.382    -237.180
  O     -378.422    1290.969    -237.162
  C     -377.565    1293.062    -237.987
  O     -376.587    1293.548    -237.069
  C     -376.985    1291.920    -238.793
  O     -375.623    1292.146    -239.147
  C     -377.183    1290.735    -237.873
  N     -374.507    1287.469    -240.669
  C     -374.110    1288.605    -240.007
  N     -372.798    1288.963    -240.135
  N     -374.924    1289.358    -239.289
  C     -376.198    1288.880    -239.246
  C     -376.711    1287.774    -239.873
  C     -375.808    1286.969    -240.661
  O     -376.119    1285.938    -241.288
  N     -378.055    1287.646    -239.602
  C     -378.341    1288.694    -238.826
  N     -377.245    1289.473    -238.604
  O     -382.547    1292.961    -239.812
  O     -380.882    1291.885    -241.436
  H     -375.223    1291.272    -239.327
  H     -381.618    1292.049    -242.053
  H     -373.846    1286.937    -241.218
  H     -379.314    1288.897    -238.423
  H     -376.367    1290.615    -237.120
  H     -377.563    1291.803    -239.726
  H     -372.129    1288.447    -240.657
  H     -377.923    1293.883    -238.617
  H     -372.491    1289.783    -239.642
  H     -378.682    1292.719    -236.131
  H     -380.755    1291.830    -237.429
  H     -380.472    1293.585    -237.412
  P     -375.367    1294.418    -237.605
  C     -376.393    1296.796    -237.560
  O     -375.449    1295.879    -236.960
  O     -375.175    1294.405    -239.103
  O     -374.098    1293.789    -236.859
  H     -373.318    1293.885    -237.416
  H     -376.356    1297.733    -237.045
  H     -377.380    1296.389    -237.489
  H     -376.141    1296.944    -238.589

 6  7  8  9  10  11  12  13  14  15  26  29  33  34 0
 6-311+G(2d,p)
 ****
 36  38  39  40  41 0
 6-311+G(2d,p)
 ****
 1  2  3  4  5  16  17  18  19  20  21  22  23  24  25 0
 3-21G
 ****
 27  28  30  31  32  35  37  42  43  44  45  46  47 0
 3-21G
 ****
 48  49 0
 3-21G
 ****


