%nproc=1
%NoSave
%Mem=1900MB
#P OB98/GEN NMR

erre ene a

0 1
  C      154.160      55.536     341.027
  O      152.778      55.817     341.097
  H      154.580      56.065     340.168
  H      154.327      54.464     340.889
  H      154.671      55.881     341.931
  P      151.920      55.150     342.280
  C      150.551      54.216     340.283
  O      151.119      53.956     341.559
  C      149.802      52.990     339.775
  O      150.687      51.857     339.626
  C      148.694      52.491     340.695
  O      147.534      53.307     340.697
  C      148.438      51.127     340.082
  O      147.687      51.277     338.862
  C      149.883      50.656     339.798
  N      150.430      49.824     340.871
  C      149.860      48.556     341.037
  O      148.941      48.182     340.307
  N      150.325      47.747     342.048
  C      151.259      48.177     342.842
  N      151.673      47.339     343.828
  C      151.871      49.514     342.716
  C      151.417      50.275     341.726
  O      151.081      56.088     343.089
  O      152.995      54.340     343.148
  H      147.943      50.539     338.279
  H      152.517      53.918     343.900
  H      152.624      49.836     343.425
  H      151.815      51.275     341.573
  H      149.936      50.094     338.855
  H      147.869      50.458     340.734
  H      149.069      52.345     341.719
  H      149.415      53.232     338.775
  H      151.236      46.430     343.893
  H      151.364      54.493     339.600
  H      152.338      47.617     344.542
  H      149.847      55.051     340.351
  P      146.558      53.185     341.968
  C      144.607      52.352     340.439
  O      145.435      52.113     341.567
  O      145.782      54.586     341.967
  O      147.239      52.906     343.271
  H      146.186      55.200     342.606
  H      143.921      51.539     340.322
  H      145.214      52.436     339.562
  H      144.062      53.261     340.583

 6  7  8  9  10  11  12  13  14  15  16  26  30  31  32  33  35 0
 6-311+G(2d,p)
 ****
 37  38 0
 6-311+G(2d,p)
 ****
 1  2  3  4  5  17  18  19  20  21  22  23  24  25 0
 3-21G
 ****
 27  28  29  34  36  39  40  41  42  43  44  45  46 0
 3-21G
 ****


