%nproc=1
%NoSave
%Mem=1900MB
#P OB98/GEN NMR

erre ene a

0 1
  C       56.154     -93.673     232.957
  O       57.545     -93.374     233.098
  P       58.178     -93.620     234.553
  C       59.546     -95.545     235.627
  O       59.216     -94.840     234.441
  C       60.616     -96.603     235.346
  O       60.105     -97.711     234.582
  C       61.804     -96.068     234.560
  O       62.683     -95.365     235.424
  C       62.410     -97.347     234.001
  O       63.283     -97.977     234.963
  C       61.174     -98.224     233.744
  N       61.807    -100.464     229.242
  C       62.553    -100.579     230.402
  N       63.599    -101.431     230.362
  N       62.291     -99.921     231.500
  C       61.214     -99.105     231.394
  C       60.385     -98.928     230.312
  C       60.685     -99.662     229.102
  O       60.046     -99.611     228.057
  N       59.356     -98.065     230.604
  C       59.644     -97.629     231.817
  N       60.722     -98.276     232.366
  O       56.956     -94.226     235.389
  O       58.715     -92.380     235.185
  H       63.615     -98.813     234.590
  H       56.653     -93.577     236.052
  H       62.059    -100.989     228.423
  H       59.090     -96.870     232.349
  H       61.348     -99.264     234.048
  H       63.018     -97.157     233.114
  H       63.855    -101.972     229.552
  H       61.455     -95.426     233.739
  H       64.152    -101.536     231.205
  H       60.958     -96.990     236.317
  H       58.657     -96.022     236.040
  H       59.895     -94.827     236.378
  P       62.991     -93.828     235.089
  C       61.538     -91.738     234.586
  O       61.601     -93.036     235.142
  O       63.359     -93.863     233.530
  O       64.100     -93.232     235.890
  H       64.144     -93.307     233.367
  H       60.523     -91.559     234.224
  H       62.238     -91.618     233.754
  H       61.775     -91.003     235.362
  H       55.846     -93.472     231.952
  H       55.588     -93.065     233.632
  H       55.987     -94.706     233.181

 3  4  5  6  7  8  9  10  11  12  23  26  30  31 0
 6-311+G(2d,p)
 ****
 33  35  36  37  38 0
 6-311+G(2d,p)
 ****
 1  2  13  14  15  16  17  18  19  20  21  22  24  25 0
 3-21G
 ****
 27  28  29  32  34  39  40  41  42  43  44  45  46  47  48  49 0
 3-21G
 ****


