%nproc=1
%NoSave
%Mem=1900MB
#P OB98/GEN NMR

erre ene a

0 1
  C       -9.650      44.711      22.897
  O       -8.334      44.320      22.565
  H       -9.879      44.346      23.901
  H      -10.371      44.280      22.196
  H       -9.733      45.801      22.896
  P       -7.796      44.635      21.086
  C       -7.223      46.883      19.931
  O       -7.991      46.224      20.926
  C       -8.053      47.975      19.261
  O       -9.123      47.405      18.478
  C       -8.746      48.935      20.222
  O       -7.863      49.865      20.825
  C       -9.729      49.598      19.271
  O       -9.034      50.553      18.450
  C      -10.199      48.384      18.431
  N      -11.444      47.798      18.923
  C      -12.633      48.329      18.407
  O      -12.605      49.243      17.584
  N      -13.832      47.838      18.866
  C      -13.843      46.912      19.773
  N      -15.057      46.494      20.227
  C      -12.615      46.313      20.330
  C      -11.464      46.799      19.871
  O       -8.370      43.806      19.983
  O       -6.205      44.518      21.208
  H       -8.774      51.292      19.029
  H       -5.824      44.694      20.314
  H      -12.681      45.549      21.091
  H      -10.520      46.421      20.245
  H      -10.331      48.666      17.381
  H      -10.533      50.133      19.783
  H       -9.313      48.385      20.982
  H       -7.395      48.509      18.563
  H      -15.874      46.957      19.854
  H       -6.896      46.136      19.202
  H      -15.147      45.996      21.107
  H       -6.342      47.349      20.383
  P       -8.304      50.523      22.224
  C       -8.806      49.541      24.584
  O       -8.729      49.311      23.187
  O       -9.694      51.225      21.864
  O       -7.320      51.471      22.832
  H       -9.563      52.164      21.629
  H       -9.100      48.639      25.078
  H       -9.527      50.307      24.780
  H       -7.849      49.851      24.948

 6  7  8  9  10  11  12  13  14  15  16  26  30  31  32  33  35 0
 6-311+G(2d,p)
 ****
 37  38 0
 6-311+G(2d,p)
 ****
 1  2  3  4  5  17  18  19  20  21  22  23  24  25 0
 3-21G
 ****
 27  28  29  34  36  39  40  41  42  43  44  45  46 0
 3-21G
 ****


