%nproc=1
%NoSave
%Mem=1900MB
#P OB98/GEN NMR

erre ene a

0 1
  C      602.911     276.181     205.425
  O      602.465     276.688     204.183
  H      603.998     276.093     205.398
  H      602.483     275.191     205.607
  H      602.633     276.861     206.238
  P      600.895     276.913     203.960
  C      599.488     278.936     203.136
  O      600.773     278.451     203.506
  C      599.576     280.388     202.690
  O      599.734     281.279     203.817
  C      600.758     280.709     201.770
  O      600.606     280.217     200.455
  C      600.734     282.226     201.837
  O      599.653     282.724     201.025
  C      600.454     282.454     203.343
  N      601.679     282.665     204.121
  C      602.161     283.977     204.190
  O      601.571     284.894     203.604
  N      603.321     284.222     204.883
  C      603.949     283.234     205.444
  N      605.097     283.539     206.120
  C      603.491     281.843     205.382
  C      602.359     281.618     204.718
  O      600.007     276.508     205.090
  O      600.570     276.148     202.588
  H      599.752     282.316     200.142
  H      599.600     276.247     202.407
  H      604.070     281.051     205.845
  H      601.957     280.621     204.624
  H      599.786     283.317     203.487
  H      601.651     282.681     201.474
  H      601.700     280.356     202.218
  H      598.622     280.641     202.210
  H      605.388     284.507     206.141
  H      598.824     278.826     204.004
  H      605.693     282.824     206.519
  H      599.090     278.337     202.309
  P      601.916     280.231     199.517
  C      602.332     279.194     197.158
  O      601.698     279.080     198.422
  O      603.057     279.647     200.480
  O      602.269     281.568     198.943
  H      603.587     280.369     200.864
  H      602.081     278.346     196.555
  H      603.393     279.234     197.293
  H      602.001     280.088     196.672

 6  7  8  9  10  11  12  13  14  15  16  26  30  31  32  33  35 0
 6-311+G(2d,p)
 ****
 37  38 0
 6-311+G(2d,p)
 ****
 1  2  3  4  5  17  18  19  20  21  22  23  24  25 0
 3-21G
 ****
 27  28  29  34  36  39  40  41  42  43  44  45  46 0
 3-21G
 ****


