%nproc=1
%NoSave
%Mem=1900MB
#P OB98/GEN NMR

erre ene a

0 1
  C      366.033    -785.606       8.720
  O      365.448    -786.885       8.609
  H      366.951    -785.583       8.120
  H      366.301    -785.393       9.760
  H      365.357    -784.824       8.339
  P      364.007    -787.130       9.277
  C      365.020    -787.860      11.530
  O      364.196    -788.224      10.428
  C      365.271    -789.074      12.416
  O      364.044    -789.568      12.961
  C      365.892    -790.257      11.674
  O      367.271    -790.044      11.399
  C      365.585    -791.394      12.644
  O      366.541    -791.438      13.695
  C      364.208    -790.986      13.175
  N      363.109    -791.752      12.523
  C      363.024    -793.095      12.897
  O      363.746    -793.640      13.704
  N      362.052    -793.815      12.235
  C      361.296    -793.371      11.173
  O      360.640    -794.099      10.456
  C      361.432    -791.912      10.863
  C      362.322    -791.215      11.562
  O      362.896    -787.411       8.305
  O      363.741    -785.771      10.100
  H      363.130    -785.203       9.593
  H      366.331    -792.244      14.226
  H      361.992    -794.785      12.456
  H      360.778    -791.519      10.098
  H      362.446    -790.139      11.330
  H      364.134    -791.147      14.255
  H      365.611    -792.366      12.123
  H      365.354    -790.437      10.736
  H      365.909    -788.774      13.262
  H      364.500    -787.083      12.108
  H      365.965    -787.433      11.148
  P      367.840    -790.139       9.906
  C      367.808    -792.691       9.476
  O      368.617    -791.550       9.775
  O      368.593    -788.953       9.427
  O      366.516    -790.389       9.017
  H      366.528    -789.746       8.272
  H      368.428    -793.561       9.414
  H      367.310    -792.540       8.541
  H      367.081    -792.825      10.249

 6  7  8  9  10  11  12  13  14  15  16  27  31  32  33  34  35 0
 6-311+G(2d,p)
 ****
 36  37 0
 6-311+G(2d,p)
 ****
 1  2  3  4  5  17  18  19  20  21  22  23  24  25 0
 3-21G
 ****
 26  28  29  30  38  39  40  41  42  43  44  45 0
 3-21G
 ****


