%nproc=1
%NoSave
%Mem=1900MB
#P OB98/GEN NMR

erre ene a

0 1
  C      -34.374      68.271      80.278
  O      -33.200      67.974      81.003
  H      -34.678      67.381      79.720
  H      -34.177      69.075      79.564
  H      -35.190      68.559      80.945
  P      -32.695      69.004      82.122
  C      -31.830      67.026      83.537
  O      -31.510      68.259      82.906
  C      -31.613      65.866      82.563
  O      -30.239      65.933      82.072
  C      -31.812      64.479      83.207
  O      -32.357      63.594      82.224
  C      -30.382      64.086      83.524
  O      -30.244      62.700      83.708
  C      -29.647      64.644      82.308
  N      -28.209      64.723      82.541
  C      -27.444      63.639      82.124
  O      -27.916      62.636      81.591
  N      -26.107      63.705      82.407
  C      -25.495      64.673      83.147
  O      -24.308      64.642      83.437
  C      -26.364      65.770      83.608
  C      -27.658      65.748      83.283
  O      -33.752      69.587      82.999
  O      -31.900      70.123      81.297
  H      -30.677      62.222      82.978
  H      -31.839      70.948      81.818
  H      -25.537      62.931      82.103
  H      -25.914      66.545      84.211
  H      -28.332      66.528      83.621
  H      -29.834      64.025      81.421
  H      -30.051      64.581      84.443
  H      -32.456      64.502      84.090
  H      -32.270      65.997      81.696
  H      -32.880      67.062      83.846
  H      -31.200      66.897      84.423
  P      -33.938      63.350      82.089
  C      -34.066      62.411      79.702
  O      -34.236      62.127      81.087
  O      -34.725      64.585      81.788
  O      -34.369      62.766      83.518
  H      -35.179      63.220      83.818
  H      -34.288      61.535      79.128
  H      -33.054      62.709      79.521
  H      -34.728      63.202      79.416

 6  7  8  9  10  11  12  13  14  15  16  26  31  32  33  34  35 0
 6-311+G(2d,p)
 ****
 36  37 0
 6-311+G(2d,p)
 ****
 1  2  3  4  5  17  18  19  20  21  22  23  24  25 0
 3-21G
 ****
 27  28  29  30  38  39  40  41  42  43  44  45 0
 3-21G
 ****


