%nproc=1
%NoSave
%Mem=1900MB
#P OB98/GEN NMR

erre ene a

0 1
  C      201.622     -85.048      19.729
  O      203.017     -85.359      19.663
  P      203.436     -86.723      18.933
  C      205.644     -87.921      18.242
  O      205.035     -86.772      18.818
  C      207.068     -87.591      17.790
  O      207.068     -86.576      16.767
  C      207.938     -87.034      18.905
  O      208.388     -88.072      19.751
  C      209.052     -86.346      18.124
  O      210.147     -87.239      17.864
  C      208.355     -85.932      16.806
  N      208.232     -84.490      16.663
  C      208.898     -83.927      15.571
  O      209.559     -84.639      14.811
  N      208.818     -82.569      15.386
  C      208.157     -81.842      16.230
  N      208.119     -80.501      15.995
  C      207.463     -82.394      17.410
  C      207.544     -83.716      17.565
  O      202.965     -86.490      17.420
  O      202.808     -87.944      19.524
  H      210.709     -86.784      17.207
  H      202.684     -87.333      17.021
  H      206.931     -81.747      18.090
  H      207.064     -84.210      18.405
  H      208.918     -86.310      15.945
  H      209.463     -85.497      18.681
  H      207.375     -86.286      19.479
  H      207.525     -88.503      17.378
  H      208.604     -80.155      15.179
  H      205.054     -88.274      17.392
  H      207.638     -79.841      16.592
  H      205.645     -88.727      18.984
  P      207.664     -88.249      21.167
  C      206.596     -90.319      22.247
  O      207.643     -89.832      21.431
  O      206.129     -87.957      20.799
  O      208.141     -87.394      22.293
  H      205.589     -87.940      21.608
  H      206.573     -91.411      22.173
  H      205.632     -89.925      21.911
  H      206.774     -90.040      23.289
  H      201.488     -84.117      20.239
  H      201.109     -85.823      20.260
  H      201.226     -84.972      18.738

 3  4  5  6  7  8  9  10  11  12  13  21  23  27  28  29  30  32 0
 6-311+G(2d,p)
 ****
 34  35 0
 6-311+G(2d,p)
 ****
 1  2  14  15  16  17  18  19  20  22  24  25  26 0
 3-21G
 ****
 31  33  36  37  38  39  40  41  42  43  44  45  46 0
 3-21G
 ****


