%nproc=1
%NoSave
%Mem=1900MB
#P OB98/GEN NMR

erre ene a

0 1
  C       64.692     299.214      29.103
  O       66.010     298.941      29.533
  H       64.044     299.285      29.981
  H       64.330     298.402      28.465
  H       64.656     300.160      28.558
  P       67.135     298.839      28.394
  C       66.945     296.250      28.218
  O       66.809     297.505      27.561
  C       67.668     295.264      27.303
  O       66.915     295.104      26.079
  C       69.060     295.714      26.874
  O       70.027     295.486      27.885
  C       69.273     294.865      25.628
  O       69.738     293.550      25.957
  C       67.859     294.786      25.033
  N       69.720     296.141      20.484
  C       70.059     295.155      21.344
  N       69.499     294.849      22.533
  C       68.479     295.681      22.800
  C       68.022     296.735      22.028
  C       68.688     296.957      20.811
  N       68.368     297.983      19.957
  N       66.983     297.387      22.664
  C       66.811     296.731      23.792
  N       67.687     295.694      23.916
  O       68.451     298.456      29.223
  O       67.326     300.071      27.575
  H       69.032     293.128      26.482
  H       68.954     299.267      29.430
  H       70.896     294.530      21.036
  H       66.075     296.978      24.552
  H       67.617     293.779      24.674
  H       70.013     295.315      24.964
  H       69.044     296.772      26.585
  H       67.712     294.290      27.807
  H       65.950     295.857      28.457
  H       67.505     296.396      29.148
  H       68.903     298.096      19.111
  H       67.671     298.661      20.242
  P       71.231     296.529      28.039
  C       72.887     295.398      26.388
  O       72.065     296.518      26.670
  O       72.208     295.811      29.087
  O       70.821     297.888      28.504
  H       72.083     296.185      29.980
  H       73.374     295.541      25.446
  H       72.285     294.515      26.348
  H       73.623     295.293      27.157

 6  7  8  9  10  11  12  13  14  15  25  28  32  33  34  35 0
 6-311+G(2d,p)
 ****
 36  37  40 0
 6-311+G(2d,p)
 ****
 1  2  3  4  5  16  17  18  19  20  21  22  23  24 0
 3-21G
 ****
 26  27  29  30  31  38  39 41  42  43  44  45  46  47  48 0
 3-21G
 ****


