%nproc=1
%NoSave
%Mem=1900MB
#P OB98/GEN NMR

erre ene a

0 1
  C      600.994    -236.931    -299.109
  O      602.084    -237.374    -298.331
  H      601.323    -236.092    -299.726
  H      600.187    -236.589    -298.455
  H      600.626    -237.723    -299.764
  P      601.975    -238.783    -297.580
  C      603.556    -240.040    -299.186
  O      602.235    -239.924    -298.675
  C      603.570    -240.890    -300.463
  O      602.569    -240.380    -301.380
  C      604.920    -240.798    -301.184
  O      605.206    -241.970    -301.940
  C      604.713    -239.632    -302.136
  O      605.602    -239.656    -303.253
  C      603.243    -239.804    -302.512
  N      603.228    -235.802    -305.668
  C      604.198    -236.770    -305.489
  N      605.307    -236.655    -306.256
  N      604.097    -237.742    -304.624
  C      602.970    -237.693    -303.877
  C      601.947    -236.772    -303.947
  C      602.052    -235.717    -304.932
  O      601.233    -234.826    -305.116
  N      600.969    -237.042    -303.021
  C      601.400    -238.117    -302.392
  N      602.598    -238.564    -302.892
  O      600.407    -238.936    -297.290
  O      602.780    -238.910    -296.324
  H      606.510    -239.658    -302.902
  H      600.256    -239.556    -296.555
  H      603.339    -235.092    -306.370
  H      600.878    -238.614    -301.583
  H      603.138    -240.500    -303.354
  H      604.908    -238.706    -301.590
  H      605.503    -235.818    -306.782
  H      605.748    -240.605    -300.503
  H      606.139    -237.150    -305.924
  H      603.293    -241.924    -300.231
  H      604.158    -240.512    -298.406
  H      603.979    -239.053    -299.374
  P      605.806    -243.244    -301.181
  C      603.625    -244.719    -300.908
  O      604.661    -243.957    -300.327
  O      606.769    -242.611    -300.076
  O      606.530    -244.208    -302.067
  H      607.696    -242.857    -300.250
  H      602.983    -245.094    -300.138
  H      604.047    -245.539    -301.451
  H      603.060    -244.102    -301.575

 6  7  8  9  10  11  12  13  14  15  26  29  33  34 0
 6-311+G(2d,p)
 ****
 36  38  39  40  41 0
 6-311+G(2d,p)
 ****
 1  2  3  4  5  16  17  18  19  20  21  22  23  24  25 0
 3-21G
 ****
 27  28  30  31  32  35  37  42  43  44  45  46  47 0
 3-21G
 ****
 48  49 0
 3-21G
 ****


