%nproc=1
%NoSave
%Mem=1900MB
#P OB98/GEN NMR

erre ene a

0 1
  C       14.519      -4.406     -82.091
  O       14.123      -5.737     -81.749
  P       13.995      -6.181     -80.213
  C       16.396      -7.058     -80.051
  O       15.449      -6.133     -79.525
  C       17.251      -7.733     -78.969
  O       18.168      -6.787     -78.364
  C       16.456      -8.382     -77.827
  O       17.212      -9.527     -77.421
  C       16.491      -7.301     -76.761
  O       16.193      -7.809     -75.462
  C       17.910      -6.750     -76.946
  N       18.061      -5.404     -76.399
  C       18.494      -5.302     -75.075
  O       18.676      -6.320     -74.400
  N       18.665      -4.052     -74.529
  C       18.329      -2.999     -75.213
  N       18.496      -1.791     -74.609
  C       17.787      -3.065     -76.586
  C       17.689      -4.289     -77.116
  O       13.250      -7.463     -79.993
  O       13.219      -4.957     -79.525
  H       15.246      -8.072     -75.445
  H       12.687      -5.294     -78.775
  H       17.498      -2.163     -77.108
  H       17.307      -4.435     -78.116
  H       18.648      -7.406     -76.459
  H       15.748      -6.528     -76.990
  H       15.438      -8.661     -78.113
  H       17.868      -8.492     -79.467
  H       18.848      -1.792     -73.656
  H       17.057      -6.524     -80.747
  H       18.162      -0.922     -75.004
  H       15.865      -7.821     -80.633
  P       16.588     -11.001     -77.426
  C       14.886     -11.174     -75.516
  O       15.083     -10.868     -76.887
  O       17.408     -12.035     -76.726
  O       16.389     -11.365     -78.979
  H       16.285     -12.328     -79.070
  H       13.886     -10.845     -75.221
  H       15.629     -10.663     -74.895
  H       14.967     -12.253     -75.367
  H       14.546      -4.304     -83.156
  H       15.491      -4.209     -81.689
  H       13.816      -3.709     -81.684

 3  4  5  6  7  8  9  10  11  12  13  23  27  28  29  30  32 0
 6-311+G(2d,p)
 ****
 34  35 0
 6-311+G(2d,p)
 ****
 1  2  14  15  16  17  18  19  20  21  22  24  25  26 0
 3-21G
 ****
 31  33  36  37  38  39  40  41  42  43  44  45  46 0
 3-21G
 ****


