%nproc=1
%NoSave
%Mem=1900MB
#P OB98/GEN NMR

erre ene a

0 1
  C     -350.187     -65.183     -89.271
  O     -349.086     -65.045     -88.370
  P     -347.788     -64.300     -88.956
  C     -346.337     -65.277     -87.042
  O     -346.751     -64.116     -87.742
  C     -345.829     -64.925     -85.639
  O     -344.513     -64.299     -85.711
  C     -346.748     -63.955     -84.878
  O     -346.685     -64.328     -83.495
  C     -346.060     -62.621     -85.109
  O     -346.489     -61.605     -84.214
  C     -344.602     -63.052     -84.985
  N     -342.284     -58.607     -84.051
  C     -343.186     -59.322     -83.343
  N     -343.763     -60.500     -83.664
  C     -343.308     -60.936     -84.851
  C     -342.391     -60.318     -85.688
  C     -341.865     -59.092     -85.243
  N     -340.962     -58.347     -85.964
  N     -342.195     -61.068     -86.838
  C     -343.038     -62.077     -86.717
  N     -343.668     -62.083     -85.505
  O     -348.308     -62.816     -89.248
  O     -347.221     -64.958     -90.169
  H     -345.975     -60.788     -84.370
  H     -348.514     -62.709     -90.196
  H     -343.492     -58.886     -82.394
  H     -343.232     -62.826     -87.475
  H     -344.319     -63.252     -83.945
  H     -346.274     -62.276     -86.127
  H     -347.789     -63.982     -85.209
  H     -345.717     -65.857     -85.071
  H     -345.540     -65.785     -87.592
  H     -340.646     -57.477     -85.564
  H     -340.634     -58.670     -86.864
  H     -347.174     -65.982     -86.994
  P     -347.925     -65.112     -82.849
  C     -349.405     -63.025     -82.659
  O     -348.677     -64.010     -81.951
  O     -347.172     -65.969     -81.719
  O     -348.755     -65.925     -83.783
  H     -346.584     -65.408     -81.185
  H     -349.927     -62.393     -81.938
  H     -350.138     -63.498     -83.321
  H     -348.720     -62.402     -83.244
  H     -350.990     -65.690     -88.778
  H     -349.880     -65.748     -90.126
  H     -350.516     -64.214     -89.584

 3  4  5  6  7  8  9  10  11  12  22  25  29  30  31  32 0
 6-311+G(2d,p)
 ****
 33  36  37 0
 6-311+G(2d,p)
 ****
 1  2  13  14  15  16  17  18  19  20  21  23  24  26 0
 3-21G
 ****
 27  28  34  35  38  39  40  41  42  43  44  45  46  47  48 0
 3-21G
 ****


