%nproc=1
%NoSave
%Mem=1900MB
#P OB98/GEN NMR

erre ene a

0 1
  C        6.575      14.477      19.087
  O        6.185      15.798      18.784
  P        6.880      16.597      17.579
  C        4.797      17.831      16.703
  O        6.034      17.952      17.394
  C        3.886      19.008      17.043
  O        3.517      18.997      18.448
  C        4.532      20.371      16.840
  O        4.849      20.747      15.517
  C        3.578      21.271      17.606
  O        2.421      21.588      16.831
  C        3.191      20.362      18.802
  N        3.859      20.776      20.038
  C        3.154      21.675      20.835
  O        2.042      22.117      20.547
  N        3.792      22.087      21.975
  C        5.052      21.729      22.361
  O        5.581      22.173      23.376
  C        5.751      20.790      21.470
  C        5.132      20.362      20.366
  O        7.076      15.812      16.326
  O        8.241      17.134      18.232
  H        1.860      22.181      17.367
  H        8.122      17.718      19.000
  H        3.308      22.748      22.558
  H        6.746      20.477      21.757
  H        5.630      19.670      19.693
  H        2.106      20.392      18.970
  H        4.048      22.218      17.887
  H        5.487      20.381      17.383
  H        2.963      18.906      16.468
  H        4.307      16.902      17.011
  H        4.983      17.769      15.624
  P        5.885      21.915      15.157
  C        6.684      20.955      12.885
  O        6.016      22.000      13.562
  O        7.146      21.965      15.954
  O        5.011      23.227      15.484
  H        5.609      23.939      15.782
  H        6.720      21.196      11.818
  H        6.142      20.012      13.011
  H        7.708      20.852      13.252
  H        6.002      14.117      19.916
  H        7.615      14.461      19.339
  H        6.404      13.851      18.236

 3  4  5  6  7  8  9  10  11  12  13  23  28  29  30  31  32 0
 6-311+G(2d,p)
 ****
 33  34 0
 6-311+G(2d,p)
 ****
 1  2  14  15  16  17  18  19  20  21  22  24  25  26  27 0
 3-21G
 ****
 35  36  37  38  39  40  41  42  43  44  45 0
 3-21G
 ****


