%nproc=1
%NoSave
%Mem=1900MB
#P OB98/GEN NMR

erre ene a

0 1
  C     -207.840     587.764    -277.390
  O     -206.906     586.862    -277.946
  P     -205.442     587.341    -278.391
  C     -204.280     586.703    -276.187
  O     -204.692     587.765    -277.036
  C     -202.757     586.628    -276.090
  O     -202.205     586.211    -277.369
  C     -202.073     587.947    -275.702
  O     -200.931     587.596    -274.918
  C     -201.649     588.502    -277.048
  O     -200.628     589.487    -276.938
  C     -201.249     587.213    -277.777
  N     -201.219     587.389    -279.224
  C     -199.961     587.477    -279.821
  O     -198.942     587.485    -279.125
  N     -199.881     587.615    -281.185
  C     -200.967     587.755    -281.877
  N     -200.830     587.879    -283.223
  C     -202.313     587.795    -281.271
  C     -202.366     587.592    -279.956
  O     -205.410     588.365    -279.472
  O     -204.704     585.976    -278.780
  H     -200.942     590.193    -276.333
  H     -204.999     585.666    -279.672
  H     -203.185     587.970    -281.881
  H     -203.305     587.602    -279.425
  H     -200.258     586.873    -277.448
  H     -202.509     588.968    -277.543
  H     -202.722     588.632    -275.150
  H     -202.501     585.849    -275.358
  H     -199.890     587.831    -283.599
  H     -204.649     585.768    -276.610
  H     -201.612     587.911    -283.859
  H     -204.727     586.824    -275.195
  P     -200.595     588.352    -273.543
  C     -201.914     586.771    -272.027
  O     -201.820     588.080    -272.553
  O     -200.211     589.787    -273.692
  O     -199.408     587.490    -272.899
  H     -198.972     588.013    -272.200
  H     -202.593     586.780    -271.169
  H     -200.934     586.408    -271.702
  H     -202.315     586.096    -272.790
  H     -208.747     587.244    -277.164
  H     -208.042     588.546    -278.092
  H     -207.438     588.186    -276.492

 3  4  5  6  7  8  9  10  11  12  13  23  27  28  29  30  32 0
 6-311+G(2d,p)
 ****
 34  35 0
 6-311+G(2d,p)
 ****
 1  2  14  15  16  17  18  19  20  21  22  24  25  26 0
 3-21G
 ****
 31  33  36  37  38  39  40  41  42  43  44  45  46 0
 3-21G
 ****


