%nproc=1
%NoSave
%Mem=1900MB
#P OB98/GEN NMR

erre ene a

0 1
  C      -74.529      99.463    -764.722
  O      -73.981      98.504    -765.605
  P      -74.571      97.017    -765.662
  C      -72.846      96.021    -764.052
  O      -74.224      96.298    -764.268
  C      -72.617      94.529    -763.803
  O      -71.194      94.299    -763.614
  C      -73.342      93.959    -762.571
  O      -73.704      92.610    -762.893
  C      -72.262      93.961    -761.510
  O      -72.531      93.070    -760.444
  C      -71.054      93.588    -762.359
  N      -66.383      91.960    -761.058
  C      -67.431      91.325    -761.629
  N      -68.647      91.821    -761.924
  C      -68.738      93.116    -761.564
  C      -67.755      93.881    -760.943
  C      -66.521      93.254    -760.700
  N      -65.432      93.894    -760.151
  N      -68.241      95.158    -760.677
  C      -69.481      95.145    -761.140
  N      -69.797      93.957    -761.728
  O      -74.200      96.238    -766.881
  O      -76.159      97.234    -765.584
  H      -72.398      92.159    -760.754
  H      -76.556      97.080    -766.459
  H      -67.268      90.275    -761.894
  H      -70.182      95.965    -761.061
  H      -71.017      92.514    -762.584
  H      -72.156      94.965    -761.091
  H      -74.234      94.535    -762.286
  H      -72.912      93.984    -764.706
  H      -72.523      96.585    -763.174
  H      -64.553      93.383    -760.147
  H      -65.420      94.908    -760.133
  H      -72.262      96.351    -764.916
  P      -75.150      92.046    -762.485
  C      -74.429      91.176    -760.188
  O      -75.231      92.115    -760.883
  O      -75.522      90.737    -763.092
  O      -76.149      93.217    -762.942
  H      -77.066      92.865    -762.999
  H      -74.940      90.199    -760.166
  H      -74.280      91.522    -759.161
  H      -73.450      91.052    -760.667
  H      -74.004     100.389    -764.830
  H      -74.435      99.115    -763.715
  H      -75.563      99.611    -764.953

 3  4  5  6  7  8  9  10  11  12  22  25  29  30  31  32 0
 6-311+G(2d,p)
 ****
 33  36  37 0
 6-311+G(2d,p)
 ****
 1  2  13  14  15  16  17  18  19  20  21  23  24  26 0
 3-21G
 ****
 27  28  34  35  38  39  40  41  42  43  44  45  46  47  48 0
 3-21G
 ****


