%nproc=1
%NoSave
%Mem=1900MB
#P OB98/GEN NMR

erre ene a

0 1
  C     -212.639    -536.389    -398.476
  O     -213.877    -535.962    -397.947
  H     -211.858    -535.707    -398.137
  H     -212.674    -536.372    -399.567
  H     -212.404    -537.401    -398.126
  P     -215.154    -536.884    -398.254
  C     -216.260    -535.413    -400.086
  O     -216.322    -535.889    -398.746
  C     -216.740    -533.962    -400.161
  O     -215.675    -533.083    -399.691
  C     -217.119    -533.502    -401.576
  O     -218.219    -532.587    -401.468
  C     -215.891    -532.711    -402.017
  O     -216.177    -531.787    -403.069
  C     -215.499    -532.063    -400.693
  N     -212.660    -528.132    -402.035
  C     -214.035    -528.314    -402.099
  N     -214.762    -527.287    -402.598
  N     -214.636    -529.403    -401.707
  C     -213.783    -530.333    -401.200
  C     -212.414    -530.277    -401.082
  C     -211.754    -529.069    -401.548
  O     -210.545    -528.861    -401.538
  N     -211.917    -531.437    -400.543
  C     -212.984    -532.188    -400.324
  N     -214.138    -531.564    -400.711
  O     -215.628    -537.323    -396.786
  O     -214.905    -538.061    -399.133
  H     -216.874    -531.177    -402.751
  H     -215.236    -538.180    -396.550
  H     -212.244    -527.276    -402.360
  H     -212.970    -533.188    -399.906
  H     -216.145    -531.220    -400.429
  H     -215.107    -533.396    -402.365
  H     -214.367    -526.407    -402.874
  H     -217.375    -534.310    -402.273
  H     -215.764    -527.381    -402.607
  H     -217.581    -533.835    -399.474
  H     -216.901    -536.039    -400.716
  H     -215.226    -535.484    -400.449
  P     -219.626    -533.015    -402.110
  C     -220.256    -530.490    -402.094
  O     -220.671    -531.830    -401.851
  O     -220.138    -534.160    -401.108
  O     -219.531    -533.512    -403.518
  H     -220.715    -534.785    -401.591
  H     -221.062    -529.822    -401.875
  H     -219.974    -530.385    -403.121
  H     -219.420    -530.257    -401.469

 6  7  8  9  10  11  12  13  14  15  26  29  33  34 0
 6-311+G(2d,p)
 ****
 36  38  39  40  41 0
 6-311+G(2d,p)
 ****
 1  2  3  4  5  16  17  18  19  20  21  22  23  24  25 0
 3-21G
 ****
 27  28  30  31  32  35  37  42  43  44  45  46  47 0
 3-21G
 ****
 48  49 0
 3-21G
 ****


