%nproc=1
%NoSave
%Mem=1900MB
#P OB98/GEN NMR

erre ene a

0 1
  C      271.095      76.089     219.317
  O      271.781      77.199     219.860
  H      270.065      76.104     219.677
  H      271.566      75.159     219.647
  H      271.086      76.132     218.224
  P      273.266      77.518     219.349
  C      273.018      78.059     216.836
  O      273.123      78.578     218.155
  C      273.008      79.196     215.808
  O      271.956      80.144     216.168
  C      274.327      79.994     215.733
  O      274.450      80.472     214.383
  C      274.027      81.131     216.696
  O      274.970      82.172     216.618
  C      272.580      81.439     216.278
  N      271.835      82.297     217.191
  C      271.502      83.576     216.755
  O      271.792      84.031     215.648
  N      270.811      84.351     217.650
  C      270.413      83.974     218.902
  O      269.769      84.701     219.648
  C      270.800      82.614     219.307
  C      271.477      81.846     218.453
  O      274.117      76.330     219.043
  O      273.888      78.400     220.533
  H      274.481      77.845     221.078
  H      275.082      82.428     215.679
  H      270.553      85.279     217.347
  H      270.512      82.285     220.299
  H      271.770      80.836     218.717
  H      272.572      81.888     215.278
  H      274.065      80.767     217.728
  H      275.204      79.400     215.991
  H      272.742      78.783     214.826
  H      272.086      77.492     216.764
  H      273.862      77.389     216.647
  P      275.703      80.141     213.442
  C      276.565      77.804     212.714
  O      275.455      78.697     212.771
  O      277.029      80.267     214.122
  O      275.593      81.157     212.210
  H      276.474      81.314     211.828
  H      276.263      76.889     212.248
  H      276.911      77.602     213.706
  H      277.353      78.251     212.145

 6  7  8  9  10  11  12  13  14  15  16  27  31  32  33  34  35 0
 6-311+G(2d,p)
 ****
 36  37 0
 6-311+G(2d,p)
 ****
 1  2  3  4  5  17  18  19  20  21  22  23  24  25 0
 3-21G
 ****
 26  28  29  30  38  39  40  41  42  43  44  45 0
 3-21G
 ****


