%nproc=1
%NoSave
%Mem=1900MB
#P OB98/GEN NMR

erre ene a

0 1
  C     -349.975     -62.744     -93.335
  O     -350.500     -63.645     -92.384
  H     -348.886     -62.722     -93.234
  H     -350.365     -61.739     -93.155
  H     -350.230     -63.067     -94.348
  P     -352.092     -63.854     -92.373
  C     -352.155     -63.632     -89.779
  O     -352.421     -64.448     -90.914
  C     -351.395     -64.429     -88.715
  O     -352.290     -65.402     -88.122
  C     -350.187     -65.183     -89.271
  O     -349.086     -65.045     -88.370
  C     -350.647     -66.627     -89.336
  O     -349.560     -67.547     -89.252
  C     -351.656     -66.694     -88.186
  N     -352.639     -67.757     -88.384
  C     -352.168     -69.071     -88.317
  O     -350.973     -69.291     -88.110
  N     -353.045     -70.103     -88.536
  C     -354.274     -69.844     -88.856
  N     -355.090     -70.909     -89.083
  C     -354.803     -68.475     -88.986
  C     -353.943     -67.488     -88.734
  O     -352.295     -65.107     -93.343
  O     -352.895     -62.655     -92.751
  H     -349.935     -68.453     -89.176
  H     -353.243     -65.215     -93.599
  H     -355.833     -68.308     -89.272
  H     -354.245     -66.449     -88.808
  H     -351.142     -66.867     -87.230
  H     -351.159     -66.803     -90.292
  H     -349.879     -64.829     -90.255
  H     -351.102     -63.744     -87.911
  H     -354.689     -71.835     -88.995
  H     -353.104     -63.279     -89.365
  H     -356.055     -70.825     -89.368
  H     -351.554     -62.771     -90.089
  P     -347.788     -64.300     -88.956
  C     -346.337     -65.277     -87.042
  O     -346.751     -64.116     -87.742
  O     -348.308     -62.816     -89.248
  O     -347.221     -64.958     -90.169
  H     -348.514     -62.709     -90.196
  H     -345.652     -65.001     -86.267
  H     -345.856     -65.950     -87.721
  H     -347.190     -65.756     -86.610

 6  7  8  9  10  11  12  13  14  15  16  26  30  31  32  33  35 0
 6-311+G(2d,p)
 ****
 37  38 0
 6-311+G(2d,p)
 ****
 1  2  3  4  5  17  18  19  20  21  22  23  24  25 0
 3-21G
 ****
 27  28  29  34  36  39  40  41  42  43  44  45  46 0
 3-21G
 ****


