%nproc=1
%NoSave
%Mem=1900MB
#P OB98/GEN NMR

erre ene a

0 1
  C       32.837    -536.228    -273.469
  O       34.107    -535.639    -273.668
  H       32.097    -535.671    -274.053
  H       32.552    -536.187    -272.415
  H       32.843    -537.264    -273.812
  P       35.349    -536.164    -272.799
  C       37.071    -535.610    -274.632
  O       36.636    -535.350    -273.303
  C       38.143    -534.605    -275.060
  O       37.530    -533.291    -275.163
  C       39.316    -534.507    -274.071
  O       40.518    -534.316    -274.824
  C       38.987    -533.258    -273.283
  O       40.138    -532.684    -272.703
  C       38.277    -532.386    -274.328
  N       37.416    -531.392    -273.689
  C       38.044    -530.235    -273.210
  O       39.262    -530.094    -273.343
  N       37.298    -529.312    -272.528
  C       36.040    -529.538    -272.298
  N       35.365    -528.595    -271.586
  C       35.337    -530.756    -272.764
  C       36.076    -531.627    -273.449
  O       35.530    -537.643    -272.740
  O       35.078    -535.552    -271.343
  H       39.885    -531.888    -272.191
  H       34.558    -536.179    -270.808
  H       34.293    -530.900    -272.541
  H       35.653    -532.554    -273.818
  H       39.010    -531.864    -274.957
  H       38.289    -533.512    -272.471
  H       39.414    -535.389    -273.430
  H       38.493    -534.873    -276.062
  H       35.891    -527.788    -271.268
  H       36.198    -535.518    -275.294
  H       34.402    -528.680    -271.307
  H       37.463    -536.631    -274.702
  P       41.869    -535.098    -274.424
  C       42.647    -535.967    -276.710
  O       42.893    -535.035    -275.662
  O       41.652    -536.467    -273.872
  O       42.554    -534.146    -273.329
  H       43.069    -534.698    -272.708
  H       43.381    -535.841    -277.479
  H       41.672    -535.797    -277.117
  H       42.704    -536.963    -276.322

 6  7  8  9  10  11  12  13  14  15  16  26  30  31  32  33  35 0
 6-311+G(2d,p)
 ****
 37  38 0
 6-311+G(2d,p)
 ****
 1  2  3  4  5  17  18  19  20  21  22  23  24  25 0
 3-21G
 ****
 27  28  29  34  36  39  40  41  42  43  44  45  46 0
 3-21G
 ****


