%nproc=1
%NoSave
%Mem=1900MB
#P OB98/GEN NMR

erre ene a

0 1
  C      -59.303      -6.943      28.975
  O      -59.176      -8.116      29.749
  P      -60.243      -8.483      30.885
  C      -59.417      -6.715      32.567
  O      -59.566      -8.104      32.293
  C      -57.977      -6.410      32.998
  O      -57.850      -4.970      33.216
  C      -57.581      -7.123      34.307
  O      -56.373      -7.880      34.224
  C      -57.574      -5.988      35.318
  O      -56.808      -6.256      36.477
  C      -57.130      -4.804      34.452
  N      -57.400      -3.516      35.085
  C      -56.389      -2.971      35.870
  O      -55.293      -3.493      36.052
  N      -56.692      -1.802      36.511
  C      -57.913      -1.200      36.542
  O      -58.142      -0.207      37.219
  C      -58.955      -1.843      35.726
  C      -58.653      -2.940      35.027
  O      -60.793      -9.867      30.822
  O      -61.348      -7.334      30.729
  H      -55.868      -6.276      36.217
  H      -61.016      -6.428      30.849
  H      -55.968      -1.396      37.083
  H      -59.937      -1.393      35.739
  H      -59.400      -3.436      34.417
  H      -56.066      -4.857      34.219
  H      -58.608      -5.829      35.649
  H      -58.337      -7.862      34.596
  H      -57.315      -6.696      32.177
  H      -60.098      -6.440      33.375
  H      -59.699      -6.130      31.685
  P      -56.257      -9.455      34.479
  C      -54.643      -8.889      36.437
  O      -54.934      -9.725      35.336
  O      -56.407     -10.308      33.264
  O      -57.433      -9.752      35.525
  H      -57.751     -10.666      35.406
  H      -53.559      -8.858      36.575
  H      -55.098      -9.308      37.338
  H      -55.010      -7.872      36.278
  H      -58.493      -6.886      28.278
  H      -59.282      -6.088      29.618
  H      -60.231      -6.966      28.442

 3  4  5  6  7  8  9  10  11  12  13  23  28  29  30  31  32 0
 6-311+G(2d,p)
 ****
 33  34 0
 6-311+G(2d,p)
 ****
 1  2  14  15  16  17  18  19  20  21  22  24  25  26  27 0
 3-21G
 ****
 35  36  37  38  39  40  41  42  43  44  45 0
 3-21G
 ****


