%nproc=1
%NoSave
%Mem=1900MB
#P OB98/GEN NMR

erre ene a

0 1
  C      -97.459     222.295     -86.039
  O      -98.494     221.323     -86.228
  P      -99.088     220.603     -84.922
  C      -97.433     218.619     -84.631
  O      -97.883     219.877     -84.141
  C      -97.871     217.474     -83.709
  O      -97.501     216.181     -84.283
  C      -97.233     217.533     -82.315
  O      -98.149     216.951     -81.380
  C      -96.032     216.619     -82.455
  O      -95.546     216.186     -81.185
  C      -96.622     215.519     -83.341
  N      -92.652     212.459     -82.737
  C      -93.450     213.088     -81.792
  N      -93.160     212.834     -80.495
  N      -94.435     213.892     -82.090
  C      -94.630     214.020     -83.436
  C      -93.901     213.467     -84.457
  C      -92.802     212.599     -84.114
  O      -92.055     212.024     -84.906
  N      -94.392     213.853     -85.684
  C      -95.404     214.657     -85.396
  N      -95.606     214.764     -84.038
  O      -99.927     219.382     -85.536
  O      -99.953     221.489     -84.086
  H      -94.933     215.434     -81.345
  H     -100.880     219.557     -85.440
  H      -91.897     211.858     -82.447
  H      -96.011     215.175     -86.113
  H      -97.221     214.798     -82.772
  H      -95.221     217.147     -82.976
  H      -92.447     212.186     -80.200
  H      -96.966     218.541     -81.977
  H      -93.754     213.246     -79.785
  H      -98.959     217.490     -83.621
  H      -96.343     218.621     -84.726
  H      -97.816     218.483     -85.651
  P      -99.070     217.958     -80.536
  C      -98.098     217.435     -78.182
  O      -98.216     218.371     -79.242
  O     -100.220     217.012     -79.944
  O      -99.629     219.098     -81.325
  H     -101.021     217.534     -79.758
  H      -97.101     216.976     -78.220
  H      -98.861     216.651     -78.240
  H      -98.209     217.966     -77.233
  H      -97.162     222.689     -86.988
  H      -96.618     221.833     -85.566
  H      -97.824     223.089     -85.422

 3  4  5  6  7  8  9  10  11  12  23  26  30  31 0
 6-311+G(2d,p)
 ****
 33  35  36  37  38 0
 6-311+G(2d,p)
 ****
 1  2  13  14  15  16  17  18  19  20  21  22  24  25 0
 3-21G
 ****
 27  28  29  32  34  39  40  41  42  43  44  45  46  47  48  49 0
 3-21G
 ****


