%nproc=1
%NoSave
%Mem=1900MB
#P OB98/GEN NMR

erre ene a

0 1
  C       28.748      41.830     -15.472
  O       29.668      42.127     -16.503
  H       27.735      41.901     -15.874
  H       28.857      42.557     -14.663
  H       28.906      40.818     -15.089
  P       31.207      41.764     -16.228
  C       31.815      44.189     -15.530
  O       31.738      42.825     -15.145
  C       33.034      44.849     -14.893
  O       32.776      45.150     -13.505
  C       34.297      43.996     -14.920
  O       34.977      44.107     -16.163
  C       35.098      44.642     -13.802
  O       35.677      45.878     -14.271
  C       34.009      44.937     -12.761
  N       35.422      43.047      -8.272
  C       35.919      44.127      -8.974
  N       36.945      44.794      -8.402
  N       35.459      44.517     -10.134
  C       34.449      43.742     -10.596
  C       33.875      42.644      -9.997
  C       34.383      42.234      -8.708
  O       33.970      41.290      -8.040
  N       32.875      42.114     -10.768
  C       32.858      42.877     -11.842
  N       33.797      43.878     -11.789
  O       31.925      42.217     -17.587
  O       31.478      40.331     -15.922
  H       35.905      46.404     -13.482
  H       32.108      41.423     -18.125
  H       35.820      42.782      -7.388
  H       32.186      42.753     -12.680
  H       34.213      45.852     -12.194
  H       35.923      44.016     -13.459
  H       37.362      44.533      -7.523
  H       34.086      42.950     -14.665
  H       37.323      45.591      -8.898
  H       33.203      45.805     -15.406
  H       30.907      44.705     -15.200
  H       31.886      44.248     -16.621
  P       35.535      42.767     -16.845
  C       37.918      42.981     -15.844
  O       36.719      42.222     -15.905
  O       36.306      43.324     -18.132
  O       34.500      41.765     -17.222
  H       35.831      43.059     -18.945
  H       38.611      42.501     -15.185
  H       37.700      43.963     -15.479
  H       38.346      43.051     -16.822

 6  7  8  9  10  11  12  13  14  15  26  29  33  34 0
 6-311+G(2d,p)
 ****
 36  38  39  40  41 0
 6-311+G(2d,p)
 ****
 1  2  3  4  5  16  17  18  19  20  21  22  23  24  25 0
 3-21G
 ****
 27  28  30  31  32  35  37  42  43  44  45  46  47 0
 3-21G
 ****
 48  49 0
 3-21G
 ****


