%nproc=1
%NoSave
%Mem=1900MB
#P OB98/GEN NMR

erre ene a

0 1
  C     -160.680      44.791     -33.641
  O     -159.884      43.636     -33.817
  H     -161.726      44.486     -33.551
  H     -160.584      45.458     -34.502
  H     -160.391      45.319     -32.728
  P     -158.302      43.823     -33.978
  C     -157.787      42.301     -31.958
  O     -157.638      42.502     -33.357
  C     -157.984      40.818     -31.662
  O     -159.270      40.377     -32.139
  C     -156.943      39.912     -32.317
  O     -155.748      39.898     -31.555
  C     -157.683      38.585     -32.297
  O     -157.646      38.029     -30.969
  C     -159.114      39.024     -32.650
  N     -160.622      36.241     -36.608
  C     -160.370      35.864     -35.303
  N     -160.498      34.548     -35.027
  N     -160.007      36.697     -34.363
  C     -159.852      37.966     -34.805
  C     -160.056      38.457     -36.074
  C     -160.512      37.537     -37.093
  O     -160.764      37.832     -38.257
  N     -159.734      39.788     -36.155
  C     -159.373      40.108     -34.928
  N     -159.413      39.033     -34.073
  O     -157.726      45.098     -33.441
  O     -158.049      43.661     -35.548
  H     -156.733      37.719     -30.823
  H     -158.067      44.524     -35.999
  H     -160.881      35.549     -37.291
  H     -159.078      41.099     -34.607
  H     -159.873      38.400     -32.165
  H     -157.256      37.845     -32.973
  H     -160.491      33.846     -35.756
  H     -156.760      40.191     -33.360
  H     -160.269      34.245     -34.090
  H     -157.984      40.691     -30.573
  H     -158.659      42.876     -31.633
  H     -156.904      42.668     -31.424
  P     -154.405      39.232     -32.132
  C     -152.774      40.181     -30.367
  O     -153.458      39.035     -30.853
  O     -153.777      39.971     -33.264
  O     -154.821      37.734     -32.490
  H     -155.175      37.631     -33.407
  H     -152.182      39.910     -29.518
  H     -153.486      40.927     -30.082
  H     -152.138      40.569     -31.135

 6  7  8  9  10  11  12  13  14  15  26  29  33  34 0
 6-311+G(2d,p)
 ****
 36  38  39  40  41 0
 6-311+G(2d,p)
 ****
 1  2  3  4  5  16  17  18  19  20  21  22  23  24  25 0
 3-21G
 ****
 27  28  30  31  32  35  37  42  43  44  45  46  47 0
 3-21G
 ****
 48  49 0
 3-21G
 ****


