%nproc=1
%NoSave
%Mem=1900MB
#P OB98/GEN NMR

erre ene a

0 1
  C       -1.223    -266.105    -612.355
  O       -1.172    -267.328    -613.074
  P        0.030    -268.340    -612.732
  C       -1.188    -270.482    -611.915
  O       -0.522    -269.827    -612.984
  C       -2.211    -271.489    -612.447
  O       -3.343    -270.758    -613.011
  C       -1.685    -272.432    -613.548
  O       -2.331    -273.687    -613.372
  C       -2.153    -271.737    -614.813
  O       -2.142    -272.565    -615.968
  C       -3.532    -271.258    -614.353
  N       -5.783    -270.283    -618.854
  C       -5.419    -271.440    -618.255
  N       -4.834    -271.625    -617.054
  C       -4.629    -270.440    -616.449
  C       -4.918    -269.182    -616.934
  C       -5.525    -269.122    -618.202
  N       -5.883    -267.934    -618.814
  N       -4.545    -268.203    -616.031
  C       -4.024    -268.866    -615.021
  N       -4.072    -270.216    -615.214
  O        0.140    -268.254    -611.136
  O        1.335    -268.023    -613.401
  H       -2.623    -272.131    -616.694
  H        1.062    -268.279    -610.840
  H       -5.627    -272.351    -618.822
  H       -3.590    -268.414    -614.136
  H       -4.260    -272.069    -614.314
  H       -1.498    -270.890    -615.025
  H       -0.598    -272.580    -613.498
  H       -2.596    -272.075    -611.595
  H       -1.715    -269.747    -611.306
  H       -6.121    -267.985    -619.790
  H       -5.510    -267.082    -618.413
  H       -0.450    -270.983    -611.273
  P       -1.433    -274.998    -613.141
  C       -3.382    -276.254    -612.016
  O       -2.502    -276.209    -613.128
  O       -1.086    -274.874    -611.585
  O       -0.252    -275.148    -614.032
  H       -1.887    -274.710    -611.043
  H       -4.115    -277.057    -612.186
  H       -3.906    -275.305    -611.903
  H       -2.811    -276.484    -611.103
  H       -2.067    -265.534    -612.682
  H       -0.326    -265.549    -612.532
  H       -1.315    -266.310    -611.309

 3  4  5  6  7  8  9  10  11  12  22  25  29  30  31  32 0
 6-311+G(2d,p)
 ****
 33  36  37 0
 6-311+G(2d,p)
 ****
 1  2  13  14  15  16  17  18  19  20  21  23  24  26 0
 3-21G
 ****
 27  28  34  35  38  39  40  41  42  43  44  45  46  47  48 0
 3-21G
 ****


