%nproc=1
%NoSave
%Mem=1900MB
#P OB98/GEN NMR

erre ene a

0 1
  C     1339.159    -227.807    -311.286
  O     1339.583    -227.426    -312.580
  H     1338.241    -227.274    -311.014
  H     1338.962    -228.888    -311.282
  H     1339.947    -227.589    -310.559
  P     1339.825    -225.863    -312.824
  C     1338.686    -226.352    -315.101
  O     1338.849    -225.434    -314.026
  C     1337.865    -225.706    -316.218
  O     1336.461    -225.710    -315.869
  C     1338.207    -224.249    -316.505
  O     1339.384    -224.117    -317.290
  C     1336.963    -223.810    -317.270
  O     1337.070    -224.238    -318.654
  C     1335.847    -224.596    -316.567
  N     1331.448    -222.085    -315.645
  C     1331.879    -222.790    -316.711
  N     1333.052    -223.415    -316.897
  C     1333.840    -223.288    -315.811
  C     1333.546    -222.608    -314.639
  C     1332.282    -221.976    -314.578
  N     1331.865    -221.259    -313.485
  N     1334.575    -222.700    -313.732
  C     1335.491    -223.414    -314.348
  N     1335.098    -223.801    -315.612
  O     1341.282    -225.809    -313.493
  O     1339.747    -225.004    -311.599
  H     1337.891    -223.858    -319.003
  H     1341.741    -225.003    -313.181
  H     1331.171    -222.864    -317.542
  H     1336.446    -223.705    -313.919
  H     1335.143    -225.014    -317.287
  H     1336.823    -222.728    -317.283
  H     1338.278    -223.665    -315.574
  H     1337.992    -226.318    -317.119
  H     1338.163    -227.248    -314.748
  H     1330.887    -220.991    -313.415
  H     1332.488    -221.181    -312.682
  H     1339.672    -226.632    -315.479
  P     1340.280    -222.796    -317.064
  C     1341.281    -222.916    -319.462
  O     1340.500    -222.184    -318.540
  O     1341.723    -223.400    -316.704
  O     1339.787    -221.871    -316.014
  H     1342.232    -222.756    -316.182
  H     1341.333    -222.383    -320.388
  H     1340.834    -223.874    -319.627
  H     1342.268    -223.046    -319.070

 6  7  8  9  10  11  12  13  14  15  25  28  32  33  34  35 0
 6-311+G(2d,p)
 ****
 36  39  40 0
 6-311+G(2d,p)
 ****
 1  2  3  4  5  16  17  18  19  20  21  22  23  24 0
 3-21G
 ****
 26  27  29  30  31  37  38  41  42  43  44  45  46  47  48 0
 3-21G
 ****


