%nproc=1
%NoSave
%Mem=1900MB
#P OB98/GEN NMR

erre ene a

0 1
  C      200.237     783.459     408.708
  O      201.647     783.558     408.886
  P      202.397     784.800     409.558
  C      203.514     785.251     411.879
  O      202.646     784.459     411.098
  C      203.346     785.038     413.397
  O      201.978     785.381     413.791
  C      203.539     783.561     413.755
  O      204.845     783.046     413.968
  C      202.590     783.330     414.928
  O      203.226     783.473     416.192
  C      201.519     784.402     414.752
  N      196.413     784.689     415.000
  C      197.364     785.416     415.677
  N      196.898     786.338     416.573
  N      198.646     785.289     415.510
  C      198.975     784.285     414.646
  C      198.126     783.475     413.929
  C      196.713     783.679     414.101
  O      195.813     783.050     413.510
  N      198.825     782.568     413.182
  C      200.087     782.801     413.451
  N      200.236     783.851     414.337
  O      201.807     786.140     409.256
  O      203.868     784.759     408.901
  H      203.788     782.698     416.342
  H      204.174     785.685     408.837
  H      195.421     784.857     415.160
  H      200.939     782.275     413.031
  H      201.356     784.949     415.682
  H      202.199     782.295     414.908
  H      195.932     786.399     416.843
  H      203.129     782.971     412.928
  H      197.594     786.705     417.214
  H      203.999     785.699     413.968
  H      203.330     786.296     411.630
  H      204.559     785.035     411.618
  P      205.837     782.514     412.818
  C      205.737     783.519     410.466
  O      206.132     783.714     411.815
  O      204.935     781.521     411.944
  O      207.058     781.790     413.333
  H      205.484     780.946     411.392
  H      206.281     784.255     409.835
  H      204.667     783.659     410.367
  H      206.012     782.501     410.122
  H      200.002     782.529     408.235
  H      199.897     784.267     408.095
  H      199.753     783.507     409.661

 3  4  5  6  7  8  9  10  11  12  23  26  30  31 0
 6-311+G(2d,p)
 ****
 33  35  36  37  38 0
 6-311+G(2d,p)
 ****
 1  2  13  14  15  16  17  18  19  20  21  22  24  25 0
 3-21G
 ****
 27  28  29  32  34  39  40  41  42  43  44  45  46  47  48  49 0
 3-21G
 ****


