%nproc=1
%NoSave
%Mem=1900MB
#P OB98/GEN NMR

erre ene a

0 1
  C     -897.170     904.169     441.611
  O     -897.830     902.924     441.419
  P     -898.250     902.091     442.718
  C     -897.090     900.481     444.372
  O     -896.920     901.437     443.358
  C     -896.060     899.353     444.216
  O     -896.330     898.561     443.058
  C     -894.610     899.862     444.096
  O     -893.700     898.943     444.719
  C     -894.350     899.803     442.603
  O     -892.960     899.720     442.299
  C     -895.170     898.546     442.219
  N     -893.330     898.344     437.517
  C     -892.700     898.101     438.721
  N     -891.360     897.855     438.666
  N     -893.310     898.096     439.873
  C     -894.650     898.368     439.777
  C     -895.380     898.624     438.637
  C     -894.680     898.636     437.380
  O     -895.170     898.878     436.275
  N     -896.690     898.829     438.949
  C     -896.760     898.748     440.267
  N     -895.520     898.502     440.819
  O     -899.030     900.830     442.079
  O     -899.130     902.842     443.670
  H     -892.870     899.674     441.316
  H     -900.000     900.927     442.231
  H     -892.820     898.351     436.651
  H     -897.660     898.874     440.875
  H     -894.630     897.623     442.473
  H     -894.760     900.692     442.109
  H     -890.810     897.900     437.798
  H     -894.440     900.858     444.501
  H     -890.860     897.714     439.536
  H     -896.140     898.680     445.100
  H     -898.090     900.029     444.307
  H     -896.990     900.949     445.360
  P     -892.610     899.563     445.698
  C     -890.170     900.395     445.247
  O     -891.480     900.208     444.737
  O     -891.890     898.273     446.327
  O     -893.170     900.488     446.730
  H     -891.520     898.509     447.211
  H     -889.480     899.759     444.665
  H     -890.090     900.131     446.311
  H     -889.890     901.432     445.119
  H     -896.953     904.608     440.660
  H     -896.258     904.010     442.147
  H     -897.803     904.826     442.171

 3  4  5  6  7  8  9  10  11  12  23  26  30  31 0
 6-311+G(2d,p)
 ****
 33  35  36  37  38 0
 6-311+G(2d,p)
 ****
 1  2  13  14  15  16  17  18  19  20  21  22  24  25 0
 3-21G
 ****
 27  28  29  32  34  39  40  41  42  43  44  45  46  47  48  49 0
 3-21G
 ****


