%nproc=1
%NoSave
%Mem=1900MB
#P OB98/GEN NMR

erre ene a

0 1
  C     -216.847     123.898     668.741
  O     -218.162     123.515     668.395
  H     -216.894     124.756     669.415
  H     -216.307     124.195     667.838
  H     -216.319     123.082     669.240
  P     -218.359     122.064     667.744
  C     -218.437     123.030     665.339
  O     -217.788     122.152     666.244
  C     -218.103     122.652     663.891
  O     -216.658     122.735     663.714
  C     -218.542     121.227     663.502
  O     -218.975     121.239     662.134
  C     -217.241     120.446     663.576
  O     -217.272     119.271     662.775
  C     -216.248     121.500     663.098
  N     -212.291     118.824     661.557
  C     -213.460     119.156     660.905
  N     -213.635     118.648     659.660
  N     -214.384     119.920     661.423
  C     -214.077     120.376     662.660
  C     -212.960     120.114     663.418
  C     -211.949     119.251     662.839
  O     -210.904     118.902     663.381
  N     -213.047     120.714     664.646
  C     -214.226     121.315     664.641
  N     -214.886     121.138     663.456
  O     -219.943     121.981     667.543
  O     -217.840     120.921     668.557
  H     -218.157     118.863     662.861
  H     -220.353     121.528     668.304
  H     -211.616     118.215     661.120
  H     -214.651     121.868     665.465
  H     -216.266     121.633     662.012
  H     -217.042     120.154     664.616
  H     -212.955     118.080     659.181
  H     -219.328     120.815     664.138
  H     -214.465     118.925     659.157
  H     -218.553     123.394     663.222
  H     -218.099     124.056     665.523
  H     -219.517     122.986     665.501
  P     -220.548     121.351     661.849
  C     -220.857     118.779     661.592
  O     -221.241     119.967     662.264
  O     -220.629     121.334     660.249
  O     -221.180     122.584     662.410
  H     -221.363     121.903     659.948
  H     -221.410     117.952     661.986
  H     -219.810     118.610     661.737
  H     -221.061     118.879     660.546

 6  7  8  9  10  11  12  13  14  15  26  29  33  34 0
 6-311+G(2d,p)
 ****
 36  38  39  40  41 0
 6-311+G(2d,p)
 ****
 1  2  3  4  5  16  17  18  19  20  21  22  23  24  25 0
 3-21G
 ****
 27  28  30  31  32  35  37  42  43  44  45  46  47 0
 3-21G
 ****
 48  49 0
 3-21G
 ****


