%nproc=1
%NoSave
%Mem=1900MB
#P OB98/GEN NMR

erre ene a

0 1
  C      367.721    -398.957    -284.882
  O      369.025    -398.458    -285.221
  P      369.426    -396.991    -284.718
  C      371.949    -396.357    -284.744
  O      370.751    -396.527    -285.490
  C      372.814    -395.248    -285.359
  O      373.349    -395.643    -286.638
  C      372.055    -393.960    -285.620
  O      371.946    -393.165    -284.444
  C      372.966    -393.278    -286.632
  O      374.074    -392.654    -285.946
  C      373.466    -394.468    -287.467
  N      373.693    -394.789    -292.578
  C      374.643    -394.536    -291.653
  N      374.496    -394.448    -290.315
  C      373.223    -394.675    -289.954
  C      372.150    -394.952    -290.782
  C      372.420    -395.008    -292.164
  N      371.456    -395.273    -293.107
  N      370.992    -395.118    -290.051
  C      371.364    -394.950    -288.798
  N      372.695    -394.676    -288.687
  O      369.947    -397.253    -283.224
  O      368.298    -396.014    -284.737
  H      373.692    -391.930    -285.409
  H      369.712    -396.492    -282.653
  H      375.645    -394.379    -292.029
  H      370.699    -395.035    -287.943
  H      374.514    -394.358    -287.756
  H      372.463    -392.492    -287.193
  H      371.076    -394.162    -286.080
  H      373.651    -395.049    -284.673
  H      372.514    -397.292    -284.713
  H      371.732    -395.328    -294.074
  H      370.512    -395.455    -292.792
  H      371.691    -396.118    -283.703
  P      370.471    -392.886    -283.879
  C      370.976    -392.949    -281.333
  O      370.667    -392.161    -282.473
  O      369.948    -394.346    -283.503
  O      369.565    -392.210    -284.850
  H      368.978    -394.398    -283.603
  H      371.375    -392.301    -280.549
  H      371.717    -393.717    -281.570
  H      370.056    -393.427    -280.971
  H      367.600    -399.941    -285.284
  H      366.974    -398.310    -285.292
  H      367.618    -398.992    -283.818

 3  4  5  6  7  8  9  10  11  12  22  25  29  30  31  32 0
 6-311+G(2d,p)
 ****
 33  36  37 0
 6-311+G(2d,p)
 ****
 1  2  13  14  15  16  17  18  19  20  21  23  24  26 0
 3-21G
 ****
 27  28  34  35  38  39  40  41  42  43  44  45  46  47  48 0
 3-21G
 ****


