%nproc=1
%NoSave
%Mem=1900MB
#P OB98/GEN NMR

erre ene a

0 1
  C      376.493     279.864    -228.819
  O      377.348     279.370    -229.830
  H      375.575     280.233    -229.287
  H      376.975     280.688    -228.293
  H      376.238     279.068    -228.113
  P      378.680     278.618    -229.351
  C      380.493     279.186    -227.533
  O      379.508     279.668    -228.448
  C      381.760     280.038    -227.635
  O      381.437     281.436    -227.789
  C      382.629     279.995    -226.387
  O      383.288     278.766    -226.214
  C      383.558     281.169    -226.675
  O      384.591     280.791    -227.597
  C      382.592     282.181    -227.328
  N      382.204     283.253    -226.413
  C      383.091     284.343    -226.344
  O      384.105     284.367    -227.042
  N      382.800     285.371    -225.465
  C      381.729     285.324    -224.744
  N      381.499     286.363    -223.894
  C      380.758     284.207    -224.811
  C      381.062     283.224    -225.644
  O      379.550     278.542    -230.695
  O      378.470     277.302    -228.679
  H      385.013     281.626    -227.900
  H      379.663     279.412    -231.134
  H      379.864     284.222    -224.189
  H      380.405     282.352    -225.752
  H      383.049     282.643    -228.220
  H      384.059     281.524    -225.773
  H      382.032     280.261    -225.503
  H      382.319     279.712    -228.525
  H      382.205     287.102    -223.866
  H      380.719     278.124    -227.716
  H      380.713     286.416    -223.260
  H      380.069     279.261    -226.523
  P      383.778     278.297    -224.762
  C      384.399     279.649    -222.654
  O      384.452     279.582    -224.081
  O      384.620     277.073    -224.734
  O      382.404     278.161    -223.933
  H      381.883     278.985    -223.871
  H      384.878     280.546    -222.321
  H      384.901     278.801    -222.238
  H      383.378     279.651    -222.335

 6  7  8  9  10  11  12  13  14  15  16  26  30  31  32  33  35 0
 6-311+G(2d,p)
 ****
 37  38 0
 6-311+G(2d,p)
 ****
 1  2  3  4  5  17  18  19  20  21  22  23  24  25 0
 3-21G
 ****
 27  28  29  34  36  39  40  41  42  43  44  45  46 0
 3-21G
 ****


