%nproc=1
%NoSave
%Mem=1900MB
#P OB98/GEN NMR

erre ene a

0 1
  C      -72.368     106.916      58.649
  O      -71.493     106.015      57.999
  H      -73.367     106.473      58.677
  H      -72.421     107.862      58.105
  H      -72.036     107.094      59.675
  P      -69.976     106.465      57.757
  C      -68.789     107.680      55.805
  O      -70.001     107.495      56.530
  C      -69.067     108.331      54.452
  O      -69.903     107.477      53.647
  C      -69.800     109.665      54.542
  O      -68.924     110.688      54.966
  C      -70.317     109.794      53.119
  O      -69.278     110.234      52.231
  C      -70.717     108.331      52.808
  N      -72.136     108.059      53.015
  C      -72.925     107.997      51.861
  O      -72.421     108.182      50.754
  N      -74.268     107.747      52.000
  C      -74.771     107.531      53.173
  N      -76.106     107.283      53.242
  C      -73.967     107.553      54.411
  C      -72.674     107.831      54.261
  O      -68.973     105.361      57.617
  O      -69.647     107.404      59.011
  H      -68.895     111.036      52.638
  H      -69.226     106.888      59.723
  H      -74.427     107.358      55.370
  H      -72.013     107.867      55.122
  H      -70.471     108.079      51.769
  H      -71.132     110.513      53.038
  H      -70.661     109.580      55.215
  H      -68.109     108.444      53.929
  H      -76.613     107.259      52.363
  H      -68.347     106.689      55.662
  H      -76.570     106.945      54.071
  H      -68.085     108.292      56.380
  P      -69.353     111.749      56.089
  C      -71.084     113.644      56.249
  O      -70.563     112.592      55.452
  O      -68.240     112.570      56.646
  O      -70.097     110.856      57.187
  H      -69.437     110.365      57.738
  H      -71.880     114.129      55.723
  H      -70.309     114.352      56.456
  H      -71.456     113.244      57.169

 6  7  8  9  10  11  12  13  14  15  16  26  30  31  32  33  35 0
 6-311+G(2d,p)
 ****
 37  38 0
 6-311+G(2d,p)
 ****
 1  2  3  4  5  17  18  19  20  21  22  23  24  25 0
 3-21G
 ****
 27  28  29  34  36  39  40  41  42  43  44  45  46 0
 3-21G
 ****


