%nproc=1
%NoSave
%Mem=1900MB
#P OB98/GEN NMR

erre ene a

0 1
  C     -136.715     -48.231     160.557
  O     -136.826     -49.566     160.093
  P     -137.589     -49.799     158.700
  C     -140.029     -50.467     159.314
  O     -139.128     -49.430     158.946
  C     -140.339     -50.387     160.808
  O     -140.296     -49.017     161.251
  C     -141.721     -50.897     161.196
  O     -141.766     -52.315     161.184
  C     -141.873     -50.266     162.575
  O     -141.141     -51.026     163.549
  C     -141.214     -48.891     162.371
  N     -143.455     -44.646     164.151
  C     -142.554     -45.489     164.703
  N     -142.023     -46.610     164.176
  C     -142.503     -46.828     162.942
  C     -143.437     -46.070     162.259
  C     -143.921     -44.926     162.911
  N     -144.842     -44.071     162.347
  N     -143.705     -46.618     161.021
  C     -142.935     -47.683     160.954
  N     -142.179     -47.845     162.083
  O     -137.608     -51.391     158.559
  O     -136.954     -49.137     157.516
  H     -141.664     -51.830     163.743
  H     -137.534     -51.659     157.622
  H     -142.216     -45.228     165.702
  H     -142.886     -48.361     160.112
  H     -140.631     -48.571     163.242
  H     -142.914     -50.216     162.912
  H     -142.481     -50.497     160.513
  H     -139.561     -50.948     161.345
  H     -139.576     -51.439     159.099
  H     -145.244     -43.361     162.940
  H     -145.291     -44.358     161.486
  H     -140.942     -50.372     158.720
  P     -143.154     -53.002     160.761
  C     -144.552     -53.975     162.682
  O     -144.092     -52.794     162.049
  O     -142.784     -54.555     160.844
  O     -143.717     -52.533     159.463
  H     -142.333     -54.779     161.677
  H     -145.131     -53.692     163.566
  H     -143.707     -54.594     162.993
  H     -145.199     -54.537     162.003
  H     -136.188     -48.220     161.488
  H     -137.693     -47.819     160.695
  H     -136.180     -47.647     159.838

 3  4  5  6  7  8  9  10  11  12  22  25  29  30  31  32 0
 6-311+G(2d,p)
 ****
 33  36  37 0
 6-311+G(2d,p)
 ****
 1  2  13  14  15  16  17  18  19  20  21  23  24  26 0
 3-21G
 ****
 27  28  34  35  38  39  40  41  42  43  44  45  46  47  48 0
 3-21G
 ****


