%nproc=1
%NoSave
%Mem=1900MB
#P OB98/GEN NMR

erre ene a

0 1
  C       91.235    -143.719     -32.453
  O       90.987    -144.276     -33.727
  H       92.315    -143.705     -32.281
  H       90.768    -144.330     -31.677
  H       90.859    -142.694     -32.395
  P       89.496    -144.229     -34.314
  C       89.411    -146.632     -33.382
  O       88.987    -145.747     -34.411
  C       88.701    -147.976     -33.528
  O       89.164    -148.895     -32.517
  C       87.186    -147.899     -33.357
  O       86.575    -147.357     -34.510
  C       86.860    -149.360     -33.083
  O       86.817    -150.113     -34.304
  C       88.067    -149.787     -32.212
  N       87.774    -149.786     -30.780
  C       87.257    -150.966     -30.253
  O       87.011    -151.956     -30.939
  N       87.011    -150.959     -28.905
  C       87.150    -149.887     -28.069
  O       86.864    -149.920     -26.877
  C       87.667    -148.658     -28.689
  C       87.952    -148.664     -29.992
  O       89.312    -143.425     -35.558
  O       88.634    -143.640     -33.099
  H       87.634    -149.898     -34.794
  H       88.462    -142.691     -33.246
  H       86.624    -151.799     -28.507
  H       87.786    -147.787     -28.059
  H       88.330    -147.767     -30.469
  H       88.397    -150.796     -32.491
  H       85.892    -149.492     -32.598
  H       86.935    -147.311     -32.467
  H       88.960    -148.395     -34.509
  H       89.160    -146.190     -32.412
  H       90.497    -146.758     -33.446
  P       85.373    -146.309     -34.384
  C       83.593    -148.151     -34.429
  O       84.077    -146.973     -35.063
  O       85.681    -144.926     -34.852
  O       85.010    -146.322     -32.825
  H       85.334    -145.503     -32.402
  H       82.734    -148.512     -34.955
  H       83.324    -147.927     -33.418
  H       84.357    -148.900     -34.437

 6  7  8  9  10  11  12  13  14  15  16  26  31  32  33  34  35 0
 6-311+G(2d,p)
 ****
 36  37 0
 6-311+G(2d,p)
 ****
 1  2  3  4  5  17  18  19  20  21  22  23  24  25 0
 3-21G
 ****
 27  28  29  30  38  39  40  41  42  43  44  45 0
 3-21G
 ****


