%nproc=1
%NoSave
%Mem=1900MB
#P OB98/GEN NMR

erre ene a

0 1
  C     -212.231    -344.241    -259.992
  O     -213.320    -345.146    -260.119
  P     -213.036    -346.699    -259.816
  C     -212.547    -347.185    -262.324
  O     -212.050    -347.189    -260.990
  C     -211.493    -347.695    -263.288
  O     -210.395    -346.760    -263.354
  C     -210.867    -349.026    -262.900
  O     -211.684    -350.128    -263.274
  C     -209.584    -349.000    -263.717
  O     -209.858    -349.416    -265.071
  C     -209.196    -347.510    -263.684
  N     -204.270    -346.550    -262.977
  C     -204.965    -346.814    -264.140
  N     -204.251    -346.796    -265.288
  N     -206.244    -347.077    -264.183
  C     -206.839    -347.021    -262.967
  C     -206.264    -346.776    -261.738
  C     -204.836    -346.530    -261.703
  O     -204.160    -346.361    -260.692
  N     -207.198    -346.795    -260.740
  C     -208.339    -347.014    -261.353
  N     -208.170    -347.196    -262.708
  O     -214.428    -347.397    -260.187
  O     -212.617    -347.006    -258.418
  H     -210.397    -348.723    -265.488
  H     -214.520    -348.235    -259.695
  H     -203.290    -346.335    -263.002
  H     -209.301    -347.050    -260.867
  H     -208.866    -347.158    -264.665
  H     -208.813    -349.678    -263.330
  H     -203.292    -346.464    -265.334
  H     -210.619    -349.051    -261.833
  H     -204.745    -346.944    -266.153
  H     -211.939    -347.755    -264.294
  H     -212.822    -346.162    -262.600
  H     -213.446    -347.812    -262.370
  P     -211.616    -351.424    -262.326
  C     -209.699    -352.560    -263.673
  O     -210.110    -351.963    -262.455
  O     -212.480    -352.505    -263.130
  O     -212.123    -351.206    -260.940
  H     -212.856    -353.169    -262.512
  H     -210.168    -352.073    -264.537
  H     -209.972    -353.617    -263.661
  H     -208.610    -352.470    -263.765
  H     -212.562    -343.250    -260.222
  H     -211.452    -344.523    -260.670
  H     -211.859    -344.269    -258.989

 3  4  5  6  7  8  9  10  11  12  23  26  30  31  33  0
 6-311+G(2d,p)
 ****
 35  36  37  38 0
 6-311+G(2d,p)
 ****
 1  2  13  14  15  16  17  18  19  20  21  22  24  25  27  28  29 0
 3-21G
 ****
 32  34  39  40  41  42  43  44  45  46  47  48  49 0
 3-21G
 ****


