%nproc=1
%NoSave
%Mem=1900MB
#P OB98/GEN NMR

erre ene a

0 1
  C      256.429     122.152    -345.664
  O      255.989     123.367    -346.236
  H      256.318     122.183    -344.576
  H      255.816     121.336    -346.056
  H      257.474     121.966    -345.926
  P      256.769     124.700    -345.797
  C      254.818     126.091    -346.801
  O      255.647     125.841    -345.673
  C      253.776     127.146    -346.445
  O      252.907     126.658    -345.398
  C      254.359     128.452    -345.918
  O      254.807     129.299    -346.962
  C      253.146     129.037    -345.215
  O      252.244     129.596    -346.190
  C      252.530     127.790    -344.569
  N      251.458     128.511    -339.618
  C      250.813     128.884    -340.743
  N      251.166     128.656    -342.025
  C      252.317     127.967    -342.086
  C      253.091     127.525    -341.025
  C      252.615     127.816    -339.736
  N      253.277     127.450    -338.584
  N      254.224     126.880    -341.484
  C      254.115     126.903    -342.798
  N      252.985     127.557    -343.210
  O      257.570     125.118    -347.119
  O      257.660     124.567    -344.607
  H      252.063     128.890    -346.840
  H      258.313     125.706    -346.888
  H      249.892     129.443    -340.593
  H      254.823     126.464    -343.487
  H      251.432     127.830    -344.545
  H      253.400     129.837    -344.519
  H      255.151     128.272    -345.179
  H      253.157     127.327    -347.333
  H      254.310     125.165    -347.086
  H      252.953     127.865    -337.725
  H      254.210     127.069    -338.669
  H      255.436     126.432    -347.636
  P      256.078     130.234    -346.661
  C      255.017     132.119    -348.108
  O      255.564     131.741    -346.847
  O      257.014     129.996    -347.934
  O      256.778     129.937    -345.375
  H      257.950     130.155    -347.709
  H      254.721     133.147    -348.075
  H      254.164     131.510    -348.324
  H      255.754     131.984    -348.871

 6  7  8  9  10  11  12  13  14  15  25  28  32  33  34  35 0
 6-311+G(2d,p)
 ****
 36  39  40 0
 6-311+G(2d,p)
 ****
 1  2  3  4  5  16  17  18  19  20  21  22  23  24 0
 3-21G
 ****
 26  27  29  30  31  37  38  41  42  43  44  45  46  47 0
 3-21G
 ****
 48 0
 3-21G
 ****


