%nproc=1
%NoSave
%Mem=1900MB
#P OB98/GEN NMR

erre ene a

0 1
  C     -302.212     359.803     -83.108
  O     -301.231     360.811     -82.873
  P     -300.992     361.864     -84.056
  C     -302.145     363.791     -82.749
  O     -302.122     363.001     -83.934
  C     -303.311     364.791     -82.793
  O     -304.585     364.143     -82.946
  C     -303.422     365.631     -81.532
  O     -302.470     366.693     -81.567
  C     -304.868     366.129     -81.619
  O     -304.972     367.291     -82.457
  C     -305.597     364.932     -82.276
  N     -309.948     364.312     -79.741
  C     -309.498     365.392     -80.490
  N     -310.347     366.440     -80.600
  N     -308.335     365.423     -81.071
  C     -307.593     364.313     -80.882
  C     -307.939     363.174     -80.186
  C     -309.243     363.146     -79.539
  O     -309.684     362.212     -78.879
  N     -306.952     362.217     -80.258
  C     -305.969     362.835     -80.885
  N     -306.327     364.073     -81.345
  O     -301.409     361.046     -85.374
  O     -299.587     362.362     -84.134
  H     -304.392     367.989     -82.101
  H     -300.616     360.849     -85.899
  H     -310.841     364.344     -79.310
  H     -304.988     362.410     -81.061
  H     -306.316     365.247     -83.022
  H     -305.256     366.411     -80.642
  H     -311.259     366.474     -80.181
  H     -303.293     365.016     -80.644
  H     -310.031     367.234     -81.157
  H     -303.152     365.448     -83.664
  H     -301.206     364.338     -82.638
  H     -302.240     363.133     -81.888
  P     -301.140     366.525     -80.698
  C     -299.534     366.594     -82.732
  O     -300.039     365.857     -81.632
  O     -301.532     365.366     -79.654
  O     -300.703     367.767     -79.979
  H     -301.213     365.609     -78.764
  H     -298.500     366.264     -82.929
  H     -299.541     367.662     -82.540
  H     -300.146     366.380     -83.615
  H     -302.280     359.165     -82.252
  H     -301.931     359.224     -83.963
  H     -303.161     360.264     -83.286

 3  4  5  6  7  8  9  10  11  12  23  26  30  31 0
 6-311+G(2d,p)
 ****
 33  35  36  37  38 0
 6-311+G(2d,p)
 ****
 1  2  13  14  15  16  17  18  19  20  21  22  24  25 0
 3-21G
 ****
 27  28  29  32  34  39  40  41  42  43  44  45  46  47  48  49 0
 3-21G
 ****


