%nproc=1
%NoSave
%Mem=1900MB
#P OB98/GEN NMR

erre ene a

0 1
  C       13.888    -528.415     208.065
  O       14.278    -529.687     208.573
  P       13.163    -530.613     209.258
  C       14.108    -533.035     208.759
  O       13.807    -532.012     209.681
  C       14.710    -534.236     209.511
  O       16.084    -533.967     209.863
  C       13.970    -534.566     210.807
  O       12.869    -535.427     210.583
  C       15.070    -535.193     211.640
  O       15.302    -536.552     211.227
  C       16.278    -534.301     211.267
  N       16.480    -533.047     212.026
  C       17.057    -533.090     213.294
  O       17.425    -534.121     213.855
  N       17.224    -531.882     213.921
  C       17.039    -530.651     213.365
  O       17.260    -529.603     213.952
  C       16.572    -530.658     211.973
  C       16.305    -531.828     211.384
  O       12.186    -530.990     208.052
  O       12.432    -529.960     210.389
  H       15.460    -536.538     210.267
  H       11.302    -530.611     208.199
  H       17.574    -531.899     214.870
  H       16.454    -529.704     211.475
  H       15.958    -531.842     210.356
  H       17.214    -534.867     211.344
  H       14.790    -535.240     212.690
  H       13.655    -533.646     211.303
  H       14.695    -535.105     208.842
  H       14.809    -532.681     207.999
  H       13.196    -533.336     208.233
  P       11.401    -534.813     210.424
  C       11.106    -536.716     208.726
  O       10.509    -535.983     209.779
  O       11.311    -533.486     209.742
  O       10.850    -534.751     211.930
  H       10.989    -533.854     212.317
  H       10.472    -537.571     208.488
  H       12.094    -537.077     209.026
  H       11.195    -536.083     207.839
  H       14.739    -527.923     207.643
  H       13.490    -527.820     208.860
  H       13.141    -528.546     207.310

 3  4  5  6  7  8  9  10  11  12  13  23  28  29  30  31  32 0
 6-311+G(2d,p)
 ****
 33  34 0
 6-311+G(2d,p)
 ****
 1  2  14  15  16  17  18  19  20  21  22  24  25  26  27 0
 3-21G
 ****
 35  36  37  38  39  40  41  42  43  44  45 0
 3-21G
 ****


