%nproc=1
%NoSave
%Mem=1900MB
#P OB98/GEN NMR

erre ene a

0 1
  C       97.502     151.950     193.274
  O       98.275     150.764     193.050
  P       97.613     149.302     193.052
  C       99.044     147.929     194.698
  O       98.763     148.217     193.331
  C      100.140     146.867     194.840
  O       99.714     145.614     194.269
  C      101.454     147.220     194.152
  O      102.197     148.135     194.935
  C      102.090     145.841     193.999
  O      102.716     145.436     195.229
  C      100.867     144.960     193.705
  N      100.233     141.350     190.139
  C      100.373     141.279     191.481
  N      100.543     142.287     192.363
  C      100.534     143.474     191.732
  C      100.406     143.702     190.369
  C      100.250     142.571     189.552
  N      100.124     142.642     188.185
  N      100.472     145.050     190.092
  C      100.617     145.628     191.267
  N      100.664     144.719     192.289
  O       96.773     149.007     191.854
  O       96.729     149.257     194.387
  H      102.039     145.483     195.928
  H       95.984     148.640     194.268
  H      100.346     140.277     191.904
  H      100.693     146.695     191.430
  H      100.945     143.983     194.197
  H      102.854     145.812     193.218
  H      101.257     147.640     193.159
  H      100.305     146.697     195.913
  H       98.123     147.573     195.173
  H      100.049     141.782     187.667
  H      100.182     143.544     187.735
  H       99.357     148.857     195.191
  P      102.203     149.693     194.559
  C      104.746     149.988     194.746
  O      103.482     150.345     195.274
  O      100.914     150.413     194.779
  O      102.619     149.709     193.013
  H      102.221     150.485     192.579
  H      105.032     149.004     195.129
  H      105.483     150.726     195.073
  H      104.722     149.965     193.653
  H       98.142     152.806     193.229
  H       97.041     151.899     194.238
  H       96.746     152.030     192.521

 3  4  5  6  7  8  9  10  11  12  22  25  29  30  31  32 0
 6-311+G(2d,p)
 ****
 33  36  37 0
 6-311+G(2d,p)
 ****
 1  2  13  14  15  16  17  18  19  20  21  23  24  26 0
 3-21G
 ****
 27  28  34  35  38  39  40  41  42  43  44  45  46  47  48 0
 3-21G
 ****


