%nproc=1
%NoSave
%Mem=1900MB
#P OB98/GEN NMR

erre ene a

0 1
  C      247.951    -187.189     321.301
  O      246.967    -188.033     320.740
  H      247.615    -186.152     321.219
  H      248.899    -187.297     320.766
  H      248.094    -187.431     322.360
  P      247.325    -189.599     320.671
  C      247.441    -189.464     318.070
  O      248.124    -189.744     319.284
  C      248.452    -189.301     316.937
  O      247.795    -188.895     315.720
  C      249.519    -188.244     317.200
  O      250.545    -188.699     318.063
  C      250.028    -188.012     315.786
  O      250.879    -189.105     315.399
  C      248.703    -188.027     314.987
  N      248.123    -186.694     314.817
  C      248.634    -185.916     313.771
  O      249.537    -186.343     313.054
  N      248.133    -184.647     313.586
  C      247.201    -184.199     314.364
  N      246.750    -182.928     314.144
  C      246.622    -184.991     315.461
  C      247.121    -186.211     315.635
  O      245.922    -190.295     320.341
  O      248.028    -190.164     321.861
  H      251.338    -188.830     314.582
  H      246.059    -191.254     320.155
  H      245.852    -184.573     316.097
  H      246.747    -186.855     316.426
  H      248.853    -188.472     313.997
  H      250.612    -187.096     315.688
  H      249.075    -187.307     317.568
  H      248.908    -190.286     316.748
  H      247.208    -182.389     313.423
  H      246.869    -188.539     318.197
  H      246.165    -182.438     314.802
  H      246.753    -190.281     317.825
  P      251.355    -187.590     318.905
  C      253.044    -187.324     316.946
  O      252.146    -186.677     317.843
  O      252.518    -188.445     319.601
  O      250.536    -186.836     319.910
  H      252.688    -188.131     320.509
  H      253.493    -186.595     316.304
  H      252.507    -188.037     316.356
  H      253.806    -187.826     317.505

 6  7  8  9  10  11  12  13  14  15  16  26  30  31  32  33  35 0
 6-311+G(2d,p)
 ****
 37  38 0
 6-311+G(2d,p)
 ****
 1  2  3  4  5  17  18  19  20  21  22  23  24  25 0
 3-21G
 ****
 27  28  29  34  36  39  40  41  42  43  44  45  46 0
 3-21G
 ****


