%nproc=1
%NoSave
%Mem=1900MB
#P OB98/GEN NMR

erre ene a

0 1
  C      260.147    -183.217      90.995
  O      260.274    -183.003      89.587
  P      258.971    -182.831      88.666
  C      260.070    -181.346      86.895
  O      259.432    -182.595      87.144
  C      261.530    -181.303      87.363
  O      262.334    -182.271      86.647
  C      262.216    -179.943      87.203
  O      263.133    -179.837      88.297
  C      262.957    -180.108      85.890
  O      264.000    -179.156      85.725
  C      263.405    -181.571      85.989
  N      263.712    -182.148      84.683
  C      265.016    -181.998      84.215
  O      265.839    -181.351      84.867
  N      265.351    -182.537      82.999
  C      264.434    -183.094      82.270
  N      264.819    -183.591      81.063
  C      263.022    -183.198      82.687
  C      262.739    -182.718      83.897
  O      257.973    -181.842      89.171
  O      258.333    -184.303      88.629
  H      264.427    -179.316      84.856
  H      257.365    -184.231      88.528
  H      262.285    -183.647      82.036
  H      261.732    -182.753      84.297
  H      264.296    -181.659      86.623
  H      262.258    -179.981      85.053
  H      261.520    -179.101      87.195
  H      261.542    -181.602      88.419
  H      265.791    -183.475      80.803
  H      259.506    -180.561      87.409
  H      264.168    -183.937      80.375
  H      260.017    -181.129      85.822
  P      262.871    -178.855      89.533
  C      264.509    -179.910      91.192
  O      264.234    -178.790      90.371
  O      261.658    -179.176      90.343
  O      262.767    -177.393      88.884
  H      262.337    -176.790      89.518
  H      265.542    -179.851      91.540
  H      264.372    -180.844      90.638
  H      263.840    -179.904      92.059
  H      261.120    -183.307      91.431
  H      259.593    -184.115      91.171
  H      259.633    -182.389      91.437

 3  4  5  6  7  8  9  10  11  12  13  23  27  28  29  30  32 0
 6-311+G(2d,p)
 ****
 34  35 0
 6-311+G(2d,p)
 ****
 1  2  14  15  16  17  18  19  20  21  22  24  25  26 0
 3-21G
 ****
 31  33  36  37  38  39  40  41  42  43  44  45  46 0
 3-21G
 ****


