%nproc=1
%NoSave
%Mem=1900MB
#P OB98/GEN NMR

erre ene a

0 1
  C      119.470     478.486     493.705
  O      120.008     477.277     494.258
  P      119.955     477.085     495.852
  C      121.966     475.587     496.727
  O      120.635     475.692     496.252
  C      122.399     474.109     496.680
  O      121.476     473.287     497.424
  C      122.452     473.530     495.265
  O      123.693     473.788     494.631
  C      122.182     472.060     495.509
  O      123.371     471.406     495.996
  C      121.105     472.134     496.619
  N      119.685     472.278     496.206
  C      119.034     471.213     495.600
  O      119.551     470.127     495.349
  N      117.718     471.427     495.264
  C      116.949     472.504     495.635
  O      115.759     472.613     495.362
  C      117.659     473.525     496.417
  C      118.959     473.378     496.650
  O      118.405     476.845     496.159
  O      120.518     478.235     496.638
  H      123.549     471.773     496.887
  H      118.052     477.581     496.710
  H      117.242     470.697     494.757
  H      117.081     474.378     496.766
  H      119.484     474.144     497.227
  H      121.158     471.249     497.275
  H      121.903     471.542     494.578
  H      121.623     473.931     494.668
  H      123.392     474.019     497.146
  H      122.049     475.964     497.742
  H      122.624     476.191     496.099
  P      123.960     475.191     493.911
  C      125.207     474.769     491.700
  O      125.334     475.012     493.084
  O      123.876     476.410     494.778
  O      122.848     475.223     492.733
  H      122.050     475.720     493.013
  H      126.203     474.807     491.256
  H      124.555     475.515     491.244
  H      124.793     473.771     491.531
  H      119.576     478.469     492.640
  H      119.999     479.327     494.103
  H      118.434     478.564     493.959

 3  4  5  6  7  8  9  10  11  12  13  23  28  29  30  31  32 0
 6-311+G(2d,p)
 ****
 33  34 0
 6-311+G(2d,p)
 ****
 1  2  14  15  16  17  18  19  20  21  22  24  25  26  27 0
 3-21G
 ****
 35  36  37  38  39  40  41  42  43  44  45 0
 3-21G
 ****


