%nproc=1
%NoSave
%Mem=1900MB
#P OB98/GEN NMR

erre ene a

0 1
  C      -32.015      21.247      36.412
  O      -30.850      20.449      36.359
  P      -29.460      21.081      35.876
  C      -28.488      18.812      35.158
  O      -28.841      20.128      34.745
  C      -28.932      17.788      34.117
  O      -30.230      18.129      33.580
  C      -28.015      17.698      32.906
  O      -26.795      17.049      33.210
  C      -28.910      16.961      31.919
  O      -28.900      15.549      32.176
  C      -30.294      17.558      32.250
  N      -30.725      18.541      31.268
  C      -31.537      18.063      30.235
  O      -31.785      16.861      30.140
  N      -32.038      18.964      29.327
  C      -31.662      20.203      29.374
  N      -32.237      21.059      28.487
  C      -30.678      20.712      30.352
  C      -30.273      19.840      31.274
  O      -28.514      21.450      36.969
  O      -29.894      22.379      35.042
  H      -29.378      23.145      35.362
  H      -27.985      15.244      32.012
  H      -30.346      21.738      30.306
  H      -29.569      20.131      32.047
  H      -31.046      16.761      32.305
  H      -28.592      17.104      30.881
  H      -27.807      18.706      32.527
  H      -29.010      16.811      34.613
  H      -32.920      20.678      27.844
  H      -28.979      18.603      36.114
  H      -32.268      22.064      28.642
  H      -27.405      18.762      35.311
  P      -25.447      17.877      32.948
  C      -25.022      16.447      30.831
  O      -25.096      17.742      31.391
  O      -24.324      16.992      33.669
  O      -25.461      19.273      33.478
  H      -23.655      17.575      34.072
  H      -25.126      16.528      29.746
  H      -25.816      15.799      31.214
  H      -24.047      16.006      31.059
  H      -32.837      20.655      36.756
  H      -32.232      21.627      35.435
  H      -31.858      22.064      37.085

 3  4  5  6  7  8  9  10  11  12  13  24  27  28  29  30  32 0
 6-311+G(2d,p)
 ****
 34  35 0
 6-311+G(2d,p)
 ****
 1  2  14  15  16  17  18  19  20  21  22  23  25  26 0
 3-21G
 ****
 31  33  36  37  38  39  40  41  42  43  44  45  46 0
 3-21G
 ****


