%nproc=1
%NoSave
%Mem=1900MB
#P OB98/GEN NMR

erre ene a

0 1
  C     -178.674     124.614     -15.987
  O     -178.885     125.728     -16.830
  H     -179.322     123.799     -16.318
  H     -178.929     124.866     -14.954
  H     -177.635     124.277     -16.040
  P     -177.959     127.025     -16.646
  C     -177.899     128.987     -14.977
  O     -178.309     127.644     -15.209
  C     -178.843     129.654     -13.980
  O     -180.168     129.776     -14.546
  C     -179.019     128.876     -12.678
  O     -177.887     129.027     -11.844
  C     -180.302     129.501     -12.150
  O     -180.041     130.772     -11.534
  C     -181.114     129.692     -13.457
  N     -182.085     128.615     -13.683
  C     -183.385     128.863     -13.253
  O     -183.726     129.911     -12.704
  N     -184.276     127.839     -13.432
  C     -183.973     126.594     -13.904
  O     -184.751     125.645     -13.844
  C     -182.607     126.417     -14.412
  C     -181.732     127.416     -14.270
  O     -177.978     127.997     -17.776
  O     -176.496     126.411     -16.423
  H     -175.990     126.474     -17.255
  H     -179.597     131.320     -12.206
  H     -185.209     127.990     -13.079
  H     -182.347     125.463     -14.854
  H     -180.709     127.297     -14.609
  H     -181.659     130.644     -13.434
  H     -180.794     128.874     -11.404
  H     -179.206     127.816     -12.896
  H     -178.469     130.668     -13.778
  H     -177.930     129.530     -15.926
  H     -176.872     128.987     -14.599
  P     -177.446     127.867     -10.832
  C     -177.349     127.484      -8.300
  O     -177.688     128.392      -9.337
  O     -176.087     127.301     -11.076
  O     -178.573     126.741     -11.008
  H     -178.144     125.884     -11.203
  H     -177.550     127.935      -7.351
  H     -176.309     127.239      -8.366
  H     -177.932     126.593      -8.402

 6  7  8  9  10  11  12  13  14  15  16  27  31  32  33  34  35 0
 6-311+G(2d,p)
 ****
 36  37 0
 6-311+G(2d,p)
 ****
 1  2  3  4  5  17  18  19  20  21  22  23  24  25 0
 3-21G
 ****
 26  28  29  30  38  39  40  41  42  43  44  45 0
 3-21G
 ****


