%nproc=1
%NoSave
%Mem=1900MB
#P OB98/GEN NMR

erre ene a

0 1
  C     -276.767     451.578    -554.917
  O     -275.835     451.505    -553.855
  H     -276.396     450.982    -555.756
  H     -276.881     452.614    -555.248
  H     -277.735     451.177    -554.599
  P     -276.213     452.297    -552.516
  C     -276.013     454.789    -551.828
  O     -275.985     453.841    -552.892
  C     -274.980     455.887    -552.072
  O     -273.647     455.346    -552.088
  C     -275.136     456.618    -553.398
  O     -276.155     457.610    -553.317
  C     -273.758     457.239    -553.550
  O     -273.669     458.427    -552.744
  C     -272.835     456.144    -552.985
  N     -268.412     454.315    -554.843
  C     -268.671     455.307    -553.962
  N     -269.870     455.766    -553.543
  C     -270.878     455.094    -554.136
  C     -270.759     454.065    -555.065
  C     -269.459     453.666    -555.410
  N     -269.189     452.643    -556.299
  N     -272.004     453.614    -555.460
  C     -272.854     454.335    -554.744
  N     -272.221     455.261    -553.966
  O     -275.551     451.814    -551.266
  O     -277.816     452.174    -552.528
  H     -274.359     459.050    -553.050
  H     -278.155     452.263    -553.435
  H     -267.799     455.789    -553.529
  H     -273.937     454.199    -554.753
  H     -272.011     456.576    -552.388
  H     -273.547     457.541    -554.581
  H     -275.312     455.916    -554.223
  H     -275.040     456.599    -551.233
  H     -275.810     454.293    -550.876
  H     -268.242     452.545    -556.618
  H     -269.964     452.255    -556.798
  H     -277.018     455.213    -551.794
  P     -277.073     457.945    -554.594
  C     -277.038     459.856    -556.314
  O     -276.251     459.004    -555.475
  O     -278.471     458.357    -554.266
  O     -277.034     456.619    -555.475
  H     -277.914     456.450    -555.886
  H     -276.394     460.519    -556.854
  H     -277.712     460.427    -555.710
  H     -277.596     459.259    -557.005

 6  7  8  9  10  11  12  13  14  15  25  28  32  33  34  35 0
 6-311+G(2d,p)
 ****
 36  39  40 0
 6-311+G(2d,p)
 ****
 1  2  3  4  5  16  17  18  19  20  21  22  23  24 0
 3-21G
 ****
 26  27  29  30  31  37  38  41  42  43  44  45  46  47 0
 3-21G
 ****
 48 0
 3-21G
 ****


