%nproc=1
%NoSave
%Mem=1900MB
#P OB98/GEN NMR

erre ene a

0 1
  C     -191.762     324.451     -81.496
  O     -192.183     325.782     -81.726
  H     -192.431     323.777     -82.035
  H     -191.810     324.213     -80.430
  H     -190.744     324.302     -81.866
  P     -191.384     326.969     -81.008
  C     -189.786     327.634     -82.925
  O     -189.921     326.987     -81.667
  C     -188.460     327.257     -83.575
  O     -188.361     327.837     -84.890
  C     -187.226     327.728     -82.805
  O     -186.933     326.838     -81.740
  C     -186.179     327.687     -83.904
  O     -185.777     326.324     -84.138
  C     -186.973     328.214     -85.115
  N     -183.974     332.182     -86.118
  C     -183.644     330.864     -85.863
  N     -182.327     330.569     -85.844
  N     -184.525     329.924     -85.637
  C     -185.799     330.378     -85.619
  C     -186.249     331.661     -85.837
  C     -185.268     332.678     -86.153
  O     -185.520     333.852     -86.410
  N     -187.603     331.758     -85.645
  C     -187.978     330.526     -85.360
  N     -186.918     329.649     -85.323
  O     -191.375     326.943     -79.509
  O     -192.058     328.301     -81.581
  H     -186.580     325.823     -84.372
  H     -192.784     328.605     -81.005
  H     -183.250     332.862     -86.277
  H     -188.999     330.211     -85.178
  H     -186.653     327.745     -86.052
  H     -185.281     328.252     -83.655
  H     -181.603     331.271     -85.861
  H     -187.341     328.760     -82.459
  H     -182.065     329.621     -85.600
  H     -188.448     326.168     -83.705
  H     -189.834     328.712     -82.747
  H     -190.613     327.356     -83.588
  P     -186.030     327.292     -80.492
  C     -188.259     327.878     -79.321
  O     -186.948     328.298     -79.647
  O     -184.686     327.826     -80.854
  O     -185.989     326.006     -79.546
  H     -185.280     325.364     -79.797
  H     -188.750     328.645     -78.760
  H     -188.212     326.983     -78.736
  H     -188.807     327.688     -80.220

 6  7  8  9  10  11  12  13  14  15  26  29  33  34 0
 6-311+G(2d,p)
 ****
 36  38  39  40  41 0
 6-311+G(2d,p)
 ****
 1  2  3  4  5  16  17  18  19  20  21  22  23  24  25 0
 3-21G
 ****
 27  28  30  31  32  35  37  42  43  44  45  46  47 0
 3-21G
 ****
 48  49 0
 3-21G
 ****


