%nproc=1
%NoSave
%Mem=1900MB
#P OB98/GEN NMR

erre ene a

0 1
  C       65.189    -170.504     -71.072
  O       64.524    -171.726     -71.410
  P       62.924    -171.706     -71.537
  C       60.904    -171.592     -69.896
  O       62.304    -171.765     -70.056
  C       60.542    -171.509     -68.406
  O       60.563    -172.815     -67.781
  C       61.500    -170.641     -67.595
  O       61.168    -169.262     -67.690
  C       61.217    -171.140     -66.184
  O       60.016    -170.529     -65.676
  C       61.004    -172.646     -66.407
  N       62.805    -177.118     -64.851
  C       61.500    -176.667     -64.953
  N       60.532    -177.544     -64.597
  N       61.172    -175.471     -65.369
  C       62.243    -174.710     -65.706
  C       63.581    -175.041     -65.647
  C       63.929    -176.364     -65.174
  O       65.068    -176.814     -65.046
  N       64.372    -174.001     -66.069
  C       63.519    -173.051     -66.402
  N       62.213    -173.426     -66.185
  O       62.592    -173.164     -72.115
  O       62.393    -170.625     -72.422
  H       59.859    -170.914     -64.792
  H       61.765    -173.138     -72.628
  H       63.000    -178.046     -64.519
  H       63.796    -172.084     -66.805
  H       60.227    -173.061     -65.752
  H       62.022    -170.885     -65.484
  H       60.708    -178.494     -64.315
  H       62.547    -170.840     -67.868
  H       59.567    -177.242     -64.699
  H       59.528    -171.100     -68.323
  H       60.361    -172.420     -70.362
  H       60.592    -170.691     -70.434
  P       61.634    -168.477     -69.013
  C       63.933    -167.676     -69.927
  O       63.234    -168.477     -68.985
  O       61.240    -166.957     -68.678
  O       60.996    -168.945     -70.280
  H       61.007    -166.485     -69.501
  H       64.993    -167.672     -69.662
  H       63.560    -166.649     -69.918
  H       63.823    -168.099     -70.933
  H       66.244    -170.674     -71.024
  H       64.840    -170.159     -70.121
  H       64.980    -169.766     -71.818

 3  4  5  6  7  8  9  10  11  12  23  26  30  31 0
 6-311+G(2d,p)
 ****
 33  35  36  37  38 0
 6-311+G(2d,p)
 ****
 1  2  13  14  15  16  17  18  19  20  21  22  24  25 0
 3-21G
 ****
 27  28  29  32  34  39  40  41  42  43  44  45  46  47  48  49 0
 3-21G
 ****


