%nproc=1
%NoSave
%Mem=1900MB
#P OB98/GEN NMR

erre ene a

0 1
  C      -73.607      83.323     -25.787
  O      -72.750      83.219     -26.912
  P      -71.228      83.707     -26.745
  C      -71.527      85.734     -28.356
  O      -71.215      85.283     -27.047
  C      -70.440      86.679     -28.872
  O      -70.668      86.920     -30.285
  C      -70.392      88.045     -28.180
  O      -69.021      88.464     -28.171
  C      -71.189      88.933     -29.118
  O      -70.890      90.315     -28.954
  C      -70.785      88.348     -30.469
  N      -71.535      90.338     -35.057
  C      -70.392      90.318     -34.277
  N      -69.282      90.853     -34.829
  N      -70.345      89.819     -33.070
  C      -71.528      89.305     -32.660
  C      -72.734      89.299     -33.323
  C      -72.765      89.822     -34.671
  O      -73.730      89.781     -35.429
  N      -73.732      88.771     -32.549
  C      -73.113      88.382     -31.452
  N      -71.770      88.642     -31.491
  O      -70.508      83.070     -28.022
  O      -70.562      83.327     -25.459
  H      -71.512      90.825     -29.514
  H      -70.104      82.209     -27.804
  H      -71.506      90.721     -35.988
  H      -73.581      87.905     -30.605
  H      -69.817      88.729     -30.819
  H      -72.262      88.794     -28.934
  H      -69.239      91.228     -35.763
  H      -70.794      88.035     -27.162
  H      -68.424      90.823     -34.290
  H      -69.470      86.171     -28.781
  H      -72.475      86.280     -28.327
  H      -71.644      84.874     -29.023
  P      -68.269      88.541     -26.757
  C      -68.767      91.058     -26.405
  O      -68.926      89.739     -25.924
  O      -66.825      89.116     -27.153
  O      -68.141      87.235     -26.044
  H      -66.152      88.755     -26.547
  H      -69.563      91.682     -25.994
  H      -68.816      91.098     -27.498
  H      -67.802      91.453     -26.072
  H      -74.581      82.963     -26.046
  H      -73.674      84.347     -25.483
  H      -73.213      82.737     -24.983

 3  4  5  6  7  8  9  10  11  12  23  26  30  31 0
 6-311+G(2d,p)
 ****
 33  35  36  37  38 0
 6-311+G(2d,p)
 ****
 1  2  13  14  15  16  17  18  19  20  21  22  24  25 0
 3-21G
 ****
 27  28  29  32  34  39  40  41  42  43  44  45  46  47  48  49 0
 3-21G
 ****


