%nproc=1
%NoSave
%Mem=1900MB
#P OB98/GEN NMR

erre ene a

0 1
  C     -317.876    -177.987     204.990
  O     -316.891    -178.789     205.616
  P     -316.975    -180.381     205.571
  C     -317.037    -180.408     208.198
  O     -317.539    -180.897     206.974
  C     -317.563    -181.290     209.339
  O     -318.998    -181.182     209.426
  C     -317.214    -182.759     209.119
  O     -316.016    -183.094     209.801
  C     -318.436    -183.476     209.661
  O     -318.364    -183.581     211.094
  C     -319.571    -182.505     209.251
  N     -320.099    -182.594     207.878
  C     -320.837    -183.712     207.493
  O     -321.114    -184.638     208.249
  N     -321.236    -183.742     206.179
  C     -321.007    -182.763     205.257
  O     -321.151    -182.902     204.045
  C     -320.470    -181.506     205.784
  C     -320.025    -181.489     207.042
  O     -315.438    -180.828     205.603
  O     -317.699    -180.954     204.396
  H     -317.448    -183.826     211.318
  H     -315.122    -181.036     204.706
  H     -321.650    -184.612     205.862
  H     -320.401    -180.657     205.119
  H     -319.587    -180.579     207.449
  H     -320.426    -182.592     209.931
  H     -318.496    -184.495     209.284
  H     -317.129    -182.974     208.044
  H     -317.140    -180.934     210.287
  H     -317.346    -179.368     208.343
  H     -315.941    -180.421     208.186
  P     -315.275    -184.475     209.470
  C     -315.358    -185.373     211.869
  O     -315.839    -185.523     210.548
  O     -313.790    -184.401     209.358
  O     -315.953    -184.930     208.089
  H     -315.379    -184.676     207.338
  H     -315.939    -186.018     212.532
  H     -315.460    -184.337     212.203
  H     -314.308    -185.677     211.919
  H     -317.639    -176.954     205.134
  H     -318.833    -178.197     205.420
  H     -317.900    -178.204     203.943

 3  4  5  6  7  8  9  10  11  12  13  23  28  29  30  31  32 0
 6-311+G(2d,p)
 ****
 33  34 0
 6-311+G(2d,p)
 ****
 1  2  14  15  16  17  18  19  20  21  22  24  25  26  27 0
 3-21G
 ****
 35  36  37  38  39  40  41  42  43  44  45 0
 3-21G
 ****


