%nproc=1
%NoSave
%Mem=1900MB
#P OB98/GEN NMR

erre ene a

0 1
  C      201.321    -454.312    -726.065
  O      200.644    -453.340    -725.292
  P      200.319    -451.932    -725.974
  C      198.528    -450.787    -724.464
  O      199.912    -450.885    -724.821
  C      198.361    -450.045    -723.137
  O      198.899    -450.884    -722.049
  C      199.096    -448.689    -723.084
  O      198.326    -447.791    -722.262
  C      200.370    -449.014    -722.328
  O      200.925    -447.853    -721.703
  C      199.870    -450.088    -721.329
  N      204.120    -450.187    -718.586
  C      203.132    -449.207    -718.659
  N      203.386    -448.078    -717.958
  N      202.031    -449.350    -719.329
  C      201.935    -450.532    -719.980
  C      202.823    -451.580    -719.977
  C      204.048    -451.423    -719.226
  O      204.962    -452.248    -719.140
  N      202.368    -452.638    -720.723
  C      201.225    -452.216    -721.241
  N      200.938    -450.931    -720.816
  O      198.920    -452.193    -726.731
  O      201.374    -451.458    -726.922
  H      201.580    -448.167    -721.057
  H      199.084    -452.281    -727.708
  H      204.942    -450.033    -718.052
  H      200.579    -452.779    -721.894
  H      199.377    -449.629    -720.477
  H      201.090    -449.418    -723.007
  H      204.246    -447.888    -717.463
  H      199.284    -448.244    -724.055
  H      202.694    -447.320    -718.032
  H      197.290    -449.939    -722.938
  H      198.111    -451.778    -724.390
  H      197.993    -450.240    -725.263
  P      198.169    -446.274    -722.828
  C      195.651    -446.033    -722.205
  O      196.990    -445.608    -721.994
  O      197.535    -446.519    -724.283
  O      199.459    -445.529    -722.890
  H      197.751    -445.768    -724.861
  H      195.264    -446.484    -721.312
  H      195.562    -446.723    -723.052
  H      195.051    -445.135    -722.473
  H      201.467    -455.195    -725.479
  H      202.271    -453.926    -726.371
  H      200.737    -454.550    -726.929

 3  4  5  6  7  8  9  10  11  12  23  26  30  31 0
 6-311+G(2d,p)
 ****
 33  35  36  37  38 0
 6-311+G(2d,p)
 ****
 1  2  13  14  15  16  17  18  19  20  21  22  24  25 0
 3-21G
 ****
 27  28  29  32  34  39  40  41  42  43  44  45  46  47  48  49 0
 3-21G
 ****


