%nproc=1
%NoSave
%Mem=1900MB
#P OB98/GEN NMR

erre ene a

0 1
  C       29.699     -38.622     -69.555
  O       29.110     -37.681     -68.682
  H       29.179     -38.585     -70.517
  H       29.603     -39.630     -69.143
  H       30.754     -38.385     -69.716
  P       29.760     -37.547     -67.222
  C       32.148     -36.975     -66.367
  O       31.346     -37.444     -67.444
  C       33.601     -37.388     -66.587
  O       33.690     -38.830     -66.626
  C       34.196     -36.905     -67.905
  O       34.591     -35.546     -67.841
  C       35.362     -37.870     -68.074
  O       36.512     -37.442     -67.333
  C       34.807     -39.169     -67.477
  N       35.552     -43.849     -69.353
  C       36.070     -43.212     -68.280
  N       35.804     -41.966     -67.836
  C       34.891     -41.371     -68.621
  C       34.281     -41.890     -69.750
  C       34.642     -43.197     -70.114
  N       34.141     -43.832     -71.226
  N       33.434     -40.957     -70.315
  C       33.524     -39.898     -69.537
  N       34.388     -40.105     -68.499
  O       29.557     -39.012     -66.605
  O       29.167     -36.488     -66.355
  H       36.232     -37.374     -66.400
  H       28.740     -39.032     -66.073
  H       36.799     -43.779     -67.705
  H       32.995     -38.965     -69.687
  H       35.545     -39.684     -66.850
  H       35.661     -37.950     -69.120
  H       33.483     -37.063     -68.723
  H       34.197     -37.033     -65.737
  H       31.788     -37.413     -65.430
  H       32.061     -35.885     -66.308
  H       34.462     -44.762     -71.440
  H       33.544     -43.315     -71.858
  P       34.902     -34.775     -69.210
  C       33.492     -34.081     -71.282
  O       33.623     -34.945     -70.164
  O       36.017     -35.690     -69.902
  O       35.361     -33.366     -69.041
  H       36.904     -35.308     -69.765
  H       32.595     -34.319     -71.814
  H       34.334     -34.206     -71.930
  H       33.448     -33.066     -70.945

 6  7  8  9  10  11  12  13  14  15  25  28  32  33  34  35 0
 6-311+G(2d,p)
 ****
 36  37  40 0
 6-311+G(2d,p)
 ****
 1  2  3  4  5  16  17  18  19  20  21  22  23  24 0
 3-21G
 ****
 26  27  29  30  31  38  39 41  42  43  44  45  46  47  48 0
 3-21G
 ****


