%nproc=1
%NoSave
%Mem=1900MB
#P OB98/GEN NMR

erre ene a

0 1
  C      315.636    -606.539     -67.911
  O      316.683    -605.699     -67.453
  P      317.840    -605.302     -68.498
  C      318.757    -603.671     -66.640
  O      319.023    -604.669     -67.622
  C      320.069    -603.160     -66.048
  O      321.076    -603.074     -67.066
  C      319.981    -601.762     -65.440
  O      319.349    -601.777     -64.165
  C      321.440    -601.367     -65.415
  O      322.112    -601.941     -64.276
  C      321.973    -601.988     -66.721
  N      322.094    -601.032     -67.822
  C      323.313    -600.371     -67.924
  O      324.253    -600.559     -67.148
  N      323.410    -599.461     -68.944
  C      322.415    -599.105     -69.805
  O      322.541    -598.259     -70.678
  C      321.143    -599.817     -69.626
  C      321.039    -600.730     -68.659
  O      317.158    -604.056     -69.228
  O      318.224    -606.424     -69.401
  H      316.519    -603.602     -68.647
  H      323.062    -601.745     -64.387
  H      324.295    -598.981     -69.046
  H      320.321    -599.560     -70.292
  H      320.100    -601.263     -68.509
  H      322.952    -602.455     -66.550
  H      321.585    -600.267     -65.348
  H      319.423    -601.097     -66.105
  H      320.413    -603.886     -65.287
  H      318.136    -604.105     -65.846
  H      318.204    -602.855     -67.117
  P      318.245    -600.633     -63.902
  C      318.063    -601.655     -61.489
  O      318.115    -600.493     -62.308
  O      316.905    -601.383     -64.347
  O      318.515    -599.354     -64.638
  H      316.869    -602.315     -64.041
  H      318.338    -601.371     -60.476
  H      318.760    -602.418     -61.848
  H      317.048    -602.058     -61.496
  H      314.946    -606.716     -67.113
  H      316.045    -607.471     -68.242
  H      315.127    -606.064     -68.724

 3  4  5  6  7  8  9  10  11  12  13  24  28  29  30  31  32 0
 6-311+G(2d,p)
 ****
 33  34 0
 6-311+G(2d,p)
 ****
 1  2  14  15  16  17  18  19  20  21  22  23  25  26  27 0
 3-21G
 ****
 35  36  37  38  39  40  41  42  43  44  45 0
 3-21G
 ****


