%nproc=1
%NoSave
%Mem=1900MB
#P OB98/GEN NMR

erre ene a

0 1
  C     -613.098    -417.131     896.682
  O     -612.269    -415.986     896.812
  P     -611.276    -415.714     898.040
  C     -609.138    -415.780     896.498
  O     -609.926    -415.077     897.472
  C     -607.766    -415.113     896.317
  O     -607.957    -413.791     895.740
  C     -607.015    -414.946     897.649
  O     -605.628    -415.254     897.576
  C     -607.381    -413.535     898.061
  O     -606.502    -412.962     899.017
  C     -607.476    -412.810     896.720
  N     -607.771    -407.714     896.648
  C     -606.648    -408.526     896.773
  N     -605.468    -407.902     896.902
  N     -606.706    -409.831     896.764
  C     -607.970    -410.318     896.717
  C     -609.150    -409.621     896.615
  C     -609.077    -408.177     896.565
  O     -610.026    -407.420     896.448
  N     -610.234    -410.466     896.569
  C     -609.716    -411.677     896.664
  N     -608.336    -411.630     896.739
  O     -611.150    -416.826     899.032
  O     -611.965    -414.457     898.803
  H     -606.763    -413.277     899.891
  H     -611.744    -414.568     899.751
  H     -607.669    -406.708     896.636
  H     -610.283    -412.600     896.665
  H     -606.502    -412.464     896.365
  H     -608.387    -413.559     898.534
  H     -605.371    -406.900     897.014
  H     -607.394    -415.655     898.400
  H     -604.698    -408.492     897.204
  H     -607.174    -415.720     895.609
  H     -609.721    -415.720     895.555
  H     -609.055    -416.844     896.762
  P     -604.849    -416.504     898.200
  C     -602.722    -416.106     896.815
  O     -603.277    -416.220     898.116
  O     -605.053    -417.688     897.150
  O     -605.335    -416.922     899.556
  H     -605.533    -418.439     897.582
  H     -601.640    -416.182     896.892
  H     -602.982    -415.151     896.371
  H     -603.089    -416.922     896.186
  H     -613.659    -417.064     895.773
  H     -613.770    -417.181     897.513
  H     -612.490    -418.011     896.662

 3  4  5  6  7  8  9  10  11  12  23  26  30  31 0
 6-311+G(2d,p)
 ****
 33  35  36  37  38 0
 6-311+G(2d,p)
 ****
 1  2  13  14  15  16  17  18  19  20  21  22  24  25 0
 3-21G
 ****
 27  28  29  32  34  39  40  41  42  43  44  45  46  47  48  49 0
 3-21G
 ****


