%nproc=1
%NoSave
%Mem=1900MB
#P OB98/GEN NMR

erre ene a

0 1
  C      -82.887      22.043      98.055
  O      -83.703      21.466      99.078
  P      -84.505      22.398     100.110
  C      -86.476      22.350      98.474
  O      -86.082      22.238      99.839
  C      -87.992      22.238      98.268
  O      -88.422      20.855      98.310
  C      -88.840      23.005      99.290
  O      -89.999      23.452      98.578
  C      -89.199      21.922     100.289
  O      -90.318      22.269     101.095
  C      -89.405      20.721      99.354
  N      -89.283      19.446     100.055
  C      -90.399      18.608     100.043
  O      -91.447      18.976      99.507
  N      -90.322      17.390     100.677
  C      -89.255      17.087     101.348
  N      -89.244      15.878     101.977
  C      -88.084      17.978     101.462
  C      -88.163      19.125     100.787
  O      -84.027      23.812     100.175
  O      -84.300      21.670     101.524
  H      -90.999      22.673     100.518
  H      -84.312      22.339     102.236
  H      -87.230      17.692     102.055
  H      -87.355      19.845     100.803
  H      -90.396      20.763      98.883
  H      -88.349      21.739     100.958
  H      -88.315      23.846      99.746
  H      -88.210      22.604      97.256
  H      -90.079      15.307     101.897
  H      -85.978      21.556      97.905
  H      -88.519      15.593     102.617
  H      -86.114      23.304      98.078
  P      -90.819      24.754      99.021
  C      -90.001      26.382      97.222
  O      -91.089      25.605      97.690
  O      -90.207      25.530     100.143
  O      -92.276      24.211      99.413
  H      -92.735      24.886      99.950
  H      -90.228      26.738      96.214
  H      -89.083      25.788      97.189
  H      -89.851      27.242      97.880
  H      -82.439      21.264      97.474
  H      -82.120      22.639      98.504
  H      -83.491      22.658      97.421

 3  4  5  6  7  8  9  10  11  12  13  23  27  28  29  30  32 0
 6-311+G(2d,p)
 ****
 34  35 0
 6-311+G(2d,p)
 ****
 1  2  14  15  16  17  18  19  20  21  22  24  25  26 0
 3-21G
 ****
 31  33  36  37  38  39  40  41  42  43  44  45  46 0
 3-21G
 ****


