%nproc=1
%NoSave
%Mem=1900MB
#P OB98/GEN NMR

erre ene a

0 1
  C       47.220      38.724     -84.830
  O       47.730      40.016     -85.088
  P       49.218      40.419     -84.663
  C       48.283      41.374     -82.476
  O       49.266      40.532     -83.065
  C       48.518      41.539     -80.976
  O       48.391      40.248     -80.324
  C       49.894      42.115     -80.616
  O       49.707      42.992     -79.499
  C       50.681      40.887     -80.203
  O       51.789      41.207     -79.373
  C       49.582      40.053     -79.536
  N       49.932      38.645     -79.440
  C       50.896      38.296     -78.491
  O       51.503      39.173     -77.874
  N       51.155      36.965     -78.280
  C       50.640      36.080     -79.077
  N       50.867      34.769     -78.791
  C       49.815      36.438     -80.248
  C       49.467      37.718     -80.343
  O       49.787      41.596     -85.384
  O       50.082      39.101     -84.955
  H       50.843      39.336     -85.521
  H       52.235      40.376     -79.105
  H       49.514      35.679     -80.953
  H       48.840      38.076     -81.152
  H       49.369      40.434     -78.529
  H       51.062      40.376     -81.095
  H       50.350      42.671     -81.440
  H       47.725      42.183     -80.576
  H       51.403      34.561     -77.958
  H       47.304      40.916     -82.635
  H       50.267      34.026     -79.146
  H       48.281      42.348     -82.976
  P       50.450      44.416     -79.517
  C       52.568      43.566     -78.282
  O       52.028      44.149     -79.450
  O       50.140      44.959     -78.036
  O       49.972      45.406     -80.529
  H       50.180      45.933     -78.041
  H       53.656      43.521     -78.385
  H       52.188      42.550     -78.154
  H       52.324      44.168     -77.403
  H       46.214      38.659     -85.190
  H       47.234      38.539     -83.776
  H       47.825      37.996     -85.329

 3  4  5  6  7  8  9  10  11  12  13  24  27  28  29  30  32 0
 6-311+G(2d,p)
 ****
 34  35 0
 6-311+G(2d,p)
 ****
 1  2  14  15  16  17  18  19  20  21  22  23  25  26 0
 3-21G
 ****
 31  33  36  37  38  39  40  41  42  43  44  45  46 0
 3-21G
 ****


