%nproc=1
%NoSave
%Mem=1900MB
#P OB98/GEN NMR

erre ene a

0 1
  C      203.999     204.215    -443.060
  O      202.808     203.448    -443.059
  H      203.948     204.926    -443.895
  H      204.865     203.562    -443.216
  H      204.109     204.770    -442.126
  P      202.556     202.423    -441.839
  C      200.053     203.032    -442.089
  O      201.017     201.997    -441.912
  C      198.639     202.452    -442.047
  O      198.480     201.598    -440.879
  C      197.550     203.509    -441.937
  O      197.328     204.141    -443.176
  C      196.392     202.655    -441.434
  O      195.765     201.949    -442.523
  C      197.102     201.680    -440.487
  N      196.988     202.063    -439.068
  C      195.756     201.818    -438.463
  O      194.797     201.316    -439.057
  N      195.668     202.180    -437.144
  C      196.618     202.851    -436.417
  O      196.447     203.240    -435.271
  C      197.881     203.123    -437.132
  C      198.004     202.722    -438.404
  O      203.026     202.884    -440.495
  O      203.321     201.100    -442.309
  H      195.209     201.245    -442.109
  H      204.148     201.011    -441.803
  H      194.784     202.018    -436.687
  H      198.654     203.640    -436.599
  H      198.935     202.895    -438.934
  H      196.683     200.667    -440.595
  H      195.615     203.260    -440.955
  H      197.808     204.235    -441.167
  H      198.506     201.835    -442.951
  H      200.234     203.507    -443.071
  H      200.197     203.789    -441.300
  P      196.693     205.624    -443.213
  C      197.874     206.307    -445.401
  O      196.631     206.090    -444.763
  O      197.329     206.600    -442.284
  O      195.153     205.385    -442.842
  H      194.944     205.882    -442.025
  H      197.707     206.609    -446.414
  H      198.444     205.402    -445.388
  H      198.411     207.074    -444.884

 6  7  8  9  10  11  12  13  14  15  16  26  31  32  33  34  35 0
 6-311+G(2d,p)
 ****
 36  37 0
 6-311+G(2d,p)
 ****
 1  2  3  4  5  17  18  19  20  21  22  23  24  25 0
 3-21G
 ****
 27  28  29  30  38  39  40  41  42  43  44  45 0
 3-21G
 ****


