%nproc=1
%NoSave
%Mem=1900MB
#P OB98/GEN NMR

erre ene a

0 1
  C      -48.024      23.514    -142.442
  O      -48.949      22.906    -141.567
  H      -47.894      22.872    -143.318
  H      -47.056      23.624    -141.946
  H      -48.387      24.491    -142.771
  P      -49.414      23.748    -140.282
  C      -48.229      24.776    -138.213
  O      -48.090      24.043    -139.422
  C      -46.885      24.858    -137.484
  O      -46.487      23.520    -137.083
  C      -45.758      25.448    -138.337
  O      -44.933      26.267    -137.502
  C      -44.971      24.229    -138.786
  O      -43.611      24.537    -139.096
  C      -45.162      23.282    -137.596
  N      -44.976      21.887    -137.985
  C      -44.476      21.022    -137.006
  O      -44.207      21.449    -135.880
  N      -44.235      19.712    -137.337
  C      -44.395      19.320    -138.561
  N      -44.112      18.016    -138.835
  C      -44.858      20.213    -139.645
  C      -45.133      21.467    -139.286
  O      -50.194      22.671    -139.394
  O      -50.244      24.955    -140.574
  H      -43.600      25.119    -139.887
  H      -50.916      23.087    -138.885
  H      -44.952      19.845    -140.656
  H      -45.468      22.197    -140.013
  H      -44.448      23.520    -136.793
  H      -45.433      23.807    -139.685
  H      -46.121      26.039    -139.182
  H      -47.025      25.438    -136.565
  H      -43.783      17.440    -138.070
  H      -48.950      24.264    -137.567
  H      -44.160      17.615    -139.759
  H      -48.604      25.780    -138.436
  P      -45.277      27.834    -137.467
  C      -44.564      29.937    -138.813
  O      -44.281      28.588    -138.473
  O      -44.769      28.289    -136.018
  O      -46.726      28.136    -137.665
  H      -45.534      28.474    -135.440
  H      -43.816      30.299    -139.487
  H      -44.565      30.536    -137.926
  H      -45.524      29.993    -139.282

 6  7  8  9  10  11  12  13  14  15  16  26  30  31  32  33  35 0
 6-311+G(2d,p)
 ****
 37  38 0
 6-311+G(2d,p)
 ****
 1  2  3  4  5  17  18  19  20  21  22  23  24  25 0
 3-21G
 ****
 27  28  29  34  36  39  40  41  42  43  44  45  46 0
 3-21G
 ****


