%nproc=1
%NoSave
%Mem=1900MB
#P OB98/GEN NMR

erre ene a

0 1
  C     -897.910     545.701    -848.010
  O     -897.180     545.702    -846.771
  P     -897.920     545.009    -845.513
  C     -896.130     543.205    -844.835
  O     -897.420     543.467    -845.435
  C     -895.170     542.737    -845.906
  O     -894.950     543.746    -846.949
  C     -893.760     542.439    -845.357
  O     -893.770     541.188    -844.678
  C     -892.960     542.421    -846.673
  O     -893.120     541.172    -847.360
  C     -893.610     543.572    -847.437
  N     -889.620     546.244    -849.233
  C     -890.080     545.016    -849.508
  N     -891.130     544.379    -848.994
  C     -891.780     545.151    -848.100
  C     -891.430     546.438    -847.687
  C     -890.290     547.001    -848.302
  N     -889.820     548.232    -847.991
  N     -892.320     546.920    -846.754
  C     -893.170     545.898    -846.560
  N     -892.870     544.837    -847.372
  O     -899.450     544.880    -845.998
  O     -897.790     545.803    -844.254
  H     -892.830     540.471    -846.742
  H     -900.000     545.528    -845.497
  H     -889.510     544.474    -850.270
  H     -894.000     545.942    -845.874
  H     -893.710     543.336    -848.526
  H     -891.870     542.578    -846.481
  H     -893.440     543.229    -844.703
  H     -895.590     541.840    -846.410
  H     -896.230     542.448    -844.057
  H     -888.950     548.533    -848.417
  H     -890.250     548.783    -847.256
  H     -895.780     544.126    -844.367
  P     -893.200     541.164    -843.180
  C     -895.120     539.721    -842.255
  O     -894.520     541.001    -842.239
  O     -892.800     542.732    -842.963
  O     -892.100     540.200    -842.921
  H     -893.530     543.326    -843.257
  H     -895.980     539.765    -841.567
  H     -894.390     538.972    -841.896
  H     -895.450     539.484    -843.258
  H     -897.328     546.182    -848.768
  H     -898.832     546.228    -847.881
  H     -898.113     544.692    -848.303

 3  4  5  6  7  8  9  10  11  12  22  25  29  30  31  32 0
 6-311+G(2d,p)
 ****
 33  36  37 0
 6-311+G(2d,p)
 ****
 1  2  13  14  15  16  17  18  19  20  21  23  24  26 0
 3-21G
 ****
 27  28  34  35  38  39  40  41  42  43  44  45  46  47  48 0
 3-21G
 ****


