%nproc=1
%NoSave
%Mem=1900MB
#P OB98/GEN NMR

erre ene a

0 1
  C      367.290    -968.549     279.710
  O      367.589    -969.510     280.700
  P      366.944    -970.976     280.511
  C      364.504    -971.909     280.463
  O      365.352    -970.793     280.673
  C      363.495    -972.003     281.606
  O      363.280    -970.704     282.204
  C      362.122    -972.508     281.193
  O      362.120    -973.927     281.107
  C      361.241    -971.962     282.307
  O      361.309    -972.806     283.481
  C      361.879    -970.593     282.575
  N      357.992    -967.349     282.517
  C      358.224    -968.444     283.328
  N      357.305    -968.682     284.291
  N      359.256    -969.233     283.208
  C      360.086    -968.878     282.191
  C      359.956    -967.826     281.314
  C      358.838    -966.932     281.483
  O      358.641    -965.894     280.861
  N      360.991    -967.806     280.404
  C      361.753    -968.822     280.749
  N      361.260    -969.494     281.847
  O      367.384    -971.743     281.849
  O      367.361    -971.693     279.263
  H      360.966    -973.684     283.256
  H      368.168    -972.300     281.675
  H      357.181    -966.769     282.663
  H      362.662    -969.098     280.270
  H      361.849    -970.320     283.646
  H      360.180    -971.922     282.017
  H      356.473    -968.139     284.422
  H      361.818    -972.065     280.232
  H      357.449    -969.490     284.892
  H      363.925    -972.648     282.385
  H      365.103    -972.822     280.434
  H      363.989    -971.787     279.501
  P      360.794    -974.627     280.521
  C      358.248    -974.289     280.891
  O      359.559    -974.115     281.403
  O      360.971    -976.171     280.968
  O      360.628    -974.518     279.040
  H      360.621    -976.747     280.270
  H      357.558    -974.401     281.733
  H      358.180    -975.170     280.248
  H      357.978    -973.394     280.309
  H      367.775    -967.626     279.951
  H      366.232    -968.396     279.670
  H      367.637    -968.897     278.759

 3  4  5  6  7  8  9  10  11  12  23  26  30  31 0
 6-311+G(2d,p)
 ****
 33  35  36  37  38 0
 6-311+G(2d,p)
 ****
 1  2  13  14  15  16  17  18  19  20  21  22  24  25 0
 3-21G
 ****
 27  28  29  32  34  39  40  41  42  43  44  45  46  47  48  49 0
 3-21G
 ****


