%nproc=1
%NoSave
%Mem=1900MB
#P OB98/GEN NMR

erre ene a

0 1
  C     -123.870      -5.305    -122.196
  O     -124.872      -5.400    -121.204
  H     -123.521      -4.271    -122.243
  H     -124.284      -5.581    -123.168
  H     -123.026      -5.953    -121.950
  P     -125.462      -6.862    -120.907
  C     -126.900      -7.902    -119.016
  O     -126.419      -6.712    -119.624
  C     -127.432      -7.616    -117.614
  O     -126.302      -7.424    -116.711
  C     -128.314      -6.361    -117.517
  O     -129.333      -6.610    -116.540
  C     -127.361      -5.321    -116.951
  O     -128.043      -4.238    -116.321
  C     -126.542      -6.193    -116.002
  N     -124.628      -2.220    -113.583
  C     -125.939      -2.614    -113.763
  N     -126.891      -1.829    -113.214
  N     -126.288      -3.685    -114.424
  C     -125.232      -4.394    -114.890
  C     -123.892      -4.110    -114.784
  C     -123.520      -2.905    -114.072
  O     -122.377      -2.494    -113.897
  N     -123.134      -5.063    -115.418
  C     -124.014      -5.920    -115.903
  N     -125.300      -5.557    -115.608
  O     -124.187      -7.644    -120.336
  O     -126.068      -7.558    -122.078
  H     -127.368      -3.623    -115.966
  H     -123.732      -8.119    -121.057
  H     -124.414      -1.378    -113.077
  H     -123.777      -6.808    -116.471
  H     -127.084      -6.428    -115.078
  H     -126.731      -4.910    -117.750
  H     -126.695      -1.016    -112.653
  H     -128.772      -6.057    -118.463
  H     -127.856      -2.125    -113.298
  H     -127.972      -8.501    -117.258
  H     -126.078      -8.623    -118.948
  H     -127.695      -8.329    -119.637
  P     -130.854      -6.670    -117.039
  C     -132.983      -8.012    -116.386
  O     -131.674      -7.600    -116.024
  O     -130.762      -7.580    -118.354
  O     -131.457      -5.336    -117.332
  H     -131.481      -7.346    -118.970
  H     -133.392      -8.623    -115.609
  H     -132.941      -8.573    -117.296
  H     -133.602      -7.151    -116.526

 6  7  8  9  10  11  12  13  14  15  26  29  33  34 0
 6-311+G(2d,p)
 ****
 36  38  39  40  41 0
 6-311+G(2d,p)
 ****
 1  2  3  4  5  16  17  18  19  20  21  22  23  24  25 0
 3-21G
 ****
 27  28  30  31  32  35  37  42  43  44  45  46  47 0
 3-21G
 ****
 48  49 0
 3-21G
 ****


