%nproc=1
%NoSave
%Mem=1900MB
#P OB98/GEN NMR

erre ene a

0 1
  C       68.162      95.610      31.004
  O       68.770      95.972      32.227
  H       67.096      95.847      31.062
  H       68.270      94.537      30.832
  H       68.599      96.168      30.172
  P       70.365      95.872      32.355
  C       70.058      97.398      34.412
  O       70.738      96.279      33.859
  C       70.262      97.433      35.924
  O       71.626      97.087      36.252
  C       70.022      98.802      36.547
  O       68.640      99.081      36.655
  C       70.746      98.644      37.873
  O       69.930      97.943      38.824
  C       71.970      97.796      37.464
  N       73.180      98.595      37.282
  C       74.364      98.049      37.768
  O       74.418      96.969      38.354
  N       75.490      98.806      37.583
  C       75.529     100.072      37.077
  O       76.554     100.743      37.016
  C       74.246     100.609      36.602
  C       73.149      99.858      36.723
  O       71.144      96.576      31.297
  O       70.644      94.294      32.334
  H       69.835      97.032      38.486
  H       71.005      94.041      31.464
  H       76.355      98.433      37.941
  H       74.239     101.604      36.181
  H       72.193     100.239      36.385
  H       72.176      97.033      38.225
  H       71.005      99.604      38.320
  H       70.528      99.576      35.959
  H       69.604      96.678      36.377
  H       68.990      97.306      34.190
  H       70.440      98.313      33.946
  P       68.063     100.475      36.122
  C       65.817      99.246      36.344
  O       66.489     100.499      36.423
  O       68.445     100.832      34.724
  O       68.643     101.547      37.159
  H       69.203     102.189      36.681
  H       64.779      99.384      36.563
  H       66.244      98.567      37.053
  H       65.924      98.846      35.358

 6  7  8  9  10  11  12  13  14  15  16  26  31  32  33  34  35 0
 6-311+G(2d,p)
 ****
 36  37 0
 6-311+G(2d,p)
 ****
 1  2  3  4  5  17  18  19  20  21  22  23  24  25 0
 3-21G
 ****
 27  28  29  30  38  39  40  41  42  43  44  45 0
 3-21G
 ****


