%nproc=1
%NoSave
%Mem=1900MB
#P OB98/GEN NMR

erre ene a

0 1
  C      235.364    -633.628    -658.196
  O      235.985    -632.743    -657.279
  P      235.040    -631.931    -656.268
  C      237.137    -631.302    -654.873
  O      235.947    -630.848    -655.499
  C      237.770    -630.190    -654.048
  O      238.277    -629.137    -654.936
  C      236.801    -629.511    -653.057
  O      237.529    -629.120    -651.873
  C      236.388    -628.249    -653.775
  O      235.930    -627.252    -652.862
  C      237.682    -627.890    -654.511
  N      236.261    -623.269    -655.961
  C      236.638    -623.719    -654.716
  N      236.537    -622.819    -653.703
  N      237.082    -624.915    -654.482
  C      237.118    -625.705    -655.581
  C      236.787    -625.367    -656.880
  C      236.290    -624.029    -657.119
  O      235.918    -623.577    -658.199
  N      236.998    -626.416    -657.742
  C      237.403    -627.396    -656.970
  N      237.467    -627.025    -655.652
  O      234.712    -633.014    -655.126
  O      233.781    -631.392    -656.883
  H      235.726    -626.463    -653.389
  H      233.789    -633.338    -655.239
  H      235.922    -622.327    -656.096
  H      237.654    -628.408    -657.297
  H      238.391    -627.394    -653.839
  H      235.580    -628.477    -654.471
  H      236.138    -621.899    -653.807
  H      235.944    -630.139    -652.773
  H      236.755    -623.144    -652.764
  H      238.644    -630.593    -653.515
  H      237.850    -631.635    -655.625
  H      236.908    -632.160    -654.227
  P      237.232    -630.003    -650.550
  C      239.698    -629.950    -649.704
  O      238.345    -629.577    -649.492
  O      237.662    -631.479    -650.995
  O      235.817    -629.933    -650.080
  H      237.187    -632.142    -650.474
  H      240.301    -629.052    -649.835
  H      239.810    -630.596    -650.590
  H      240.043    -630.509    -648.827
  H      236.112    -634.096    -658.802
  H      234.691    -633.079    -658.821
  H      234.821    -634.376    -657.657

 3  4  5  6  7  8  9  10  11  12  23  26  30  31 0
 6-311+G(2d,p)
 ****
 33  35  36  37  38 0
 6-311+G(2d,p)
 ****
 1  2  13  14  15  16  17  18  19  20  21  22  24  25 0
 3-21G
 ****
 27  28  29  32  34  39  40  41  42  43  44  45  46  47  48  49 0
 3-21G
 ****


