%nproc=1
%NoSave
%Mem=1900MB
#P OB98/GEN NMR

erre ene a

0 1
  C     -222.614    -547.736     -58.267
  O     -221.661    -548.397     -59.087
  P     -220.874    -547.518     -60.182
  C     -221.803    -549.039     -62.084
  O     -221.642    -547.722     -61.578
  C     -220.592    -549.439     -62.930
  O     -220.699    -550.852     -63.257
  C     -220.458    -548.681     -64.254
  O     -219.052    -548.559     -64.530
  C     -221.096    -549.624     -65.265
  O     -220.668    -549.369     -66.602
  C     -220.656    -550.975     -64.698
  N     -221.285    -554.727     -68.034
  C     -220.296    -553.752     -67.969
  N     -219.311    -553.838     -68.889
  N     -220.283    -552.791     -67.080
  C     -221.327    -552.849     -66.212
  C     -222.383    -553.735     -66.207
  C     -222.365    -554.813     -67.168
  O     -223.172    -555.743     -67.213
  N     -223.290    -553.418     -65.232
  C     -222.749    -552.396     -64.604
  N     -221.534    -552.040     -65.134
  O     -219.509    -548.331     -60.370
  O     -220.644    -546.083     -59.815
  H     -221.058    -548.514     -66.879
  H     -218.806    -547.978     -59.791
  H     -221.230    -555.452     -68.732
  H     -223.182    -551.874     -63.765
  H     -219.636    -551.241     -64.991
  H     -222.183    -549.514     -65.230
  H     -219.244    -554.564     -69.580
  H     -220.925    -547.689     -64.249
  H     -218.562    -553.158     -68.839
  H     -219.686    -549.310     -62.323
  H     -222.696    -549.068     -62.718
  H     -221.942    -549.741     -61.257
  P     -218.370    -547.115     -64.357
  C     -217.723    -546.857     -66.854
  O     -218.474    -546.356     -65.765
  O     -216.808    -547.474     -64.251
  O     -218.822    -546.351     -63.159
  H     -216.364    -546.824     -63.672
  H     -218.186    -546.516     -67.788
  H     -217.689    -547.951     -66.860
  H     -216.700    -546.462     -66.807
  H     -223.054    -548.441     -57.592
  H     -223.377    -547.307     -58.882
  H     -222.129    -546.963     -57.709

 3  4  5  6  7  8  9  10  11  12  23  26  30  31 0
 6-311+G(2d,p)
 ****
 33  35  36  37  38 0
 6-311+G(2d,p)
 ****
 1  2  13  14  15  16  17  18  19  20  21  22  24  25 0
 3-21G
 ****
 27  28  29  32  34  39  40  41  42  43  44  45  46  47  48  49 0
 3-21G
 ****


