%nproc=1
%NoSave
%Mem=1900MB
#P OB98/GEN NMR

erre ene a

0 1
  C      -59.347     724.762    -398.093
  O      -58.262     724.196    -397.391
  H      -59.669     724.060    -398.866
  H      -59.064     725.705    -398.569
  H      -60.196     724.926    -397.414
  P      -57.580     725.054    -396.217
  C      -57.476     723.467    -394.185
  O      -56.779     723.997    -395.302
  C      -56.748     722.226    -393.653
  O      -56.897     721.129    -394.569
  C      -55.244     722.422    -393.452
  O      -54.989     723.069    -392.218
  C      -54.780     720.972    -393.450
  O      -55.098     720.354    -392.188
  C      -55.658     720.370    -394.568
  N      -53.874     717.579    -398.432
  C      -54.266     717.190    -397.170
  N      -54.135     715.885    -396.874
  N      -54.737     718.007    -396.254
  C      -54.745     719.312    -396.658
  C      -54.357     719.815    -397.880
  C      -53.903     718.906    -398.901
  O      -53.576     719.190    -400.043
  N      -54.422     721.194    -397.894
  C      -54.894     721.512    -396.693
  N      -55.089     720.394    -395.897
  O      -58.493     725.967    -395.454
  O      -56.404     725.861    -396.951
  H      -54.923     719.388    -392.294
  H      -56.708     726.735    -397.251
  H      -53.507     716.911    -399.083
  H      -55.102     722.510    -396.358
  H      -55.922     719.317    -394.359
  H      -53.708     720.874    -393.604
  H      -53.653     715.224    -397.480
  H      -54.788     722.938    -394.298
  H      -54.368     715.580    -395.930
  H      -57.247     721.928    -392.705
  H      -58.488     723.197    -394.514
  H      -57.556     724.207    -393.377
  P      -53.927     724.265    -392.105
  C      -54.973     725.622    -390.167
  O      -53.947     724.721    -390.561
  O      -54.117     725.372    -393.079
  O      -52.505     723.544    -392.208
  H      -52.205     723.400    -393.144
  H      -54.873     725.843    -389.125
  H      -55.928     725.175    -390.347
  H      -54.890     726.526    -390.733

 6  7  8  9  10  11  12  13  14  15  26  29  33  34 0
 6-311+G(2d,p)
 ****
 36  38  39  40  41 0
 6-311+G(2d,p)
 ****
 1  2  3  4  5  16  17  18  19  20  21  22  23  24  25 0
 3-21G
 ****
 27  28  30  31  32  35  37  42  43  44  45  46  47 0
 3-21G
 ****
 48  49 0
 3-21G
 ****


