%nproc=1
%NoSave
%Mem=1900MB
#P OB98/GEN NMR

erre ene a

0 1
  C     -172.034    -374.874      51.380
  O     -171.180    -375.991      51.237
  H     -172.556    -374.707      50.431
  H     -171.460    -373.978      51.628
  H     -172.777    -375.069      52.161
  P     -170.212    -376.375      52.457
  C     -168.095    -375.401      51.334
  O     -168.997    -375.327      52.428
  C     -166.754    -374.737      51.687
  O     -166.973    -373.312      51.885
  C     -166.111    -375.282      52.980
  O     -164.690    -375.165      52.838
  C     -166.632    -374.298      54.011
  O     -165.927    -374.397      55.223
  C     -166.521    -372.989      53.218
  N     -167.302    -371.912      53.815
  C     -166.700    -371.218      54.861
  O     -165.569    -371.537      55.256
  N     -167.390    -370.203      55.469
  C     -168.610    -369.943      55.098
  N     -169.248    -368.940      55.750
  C     -169.311    -370.698      54.031
  C     -168.596    -371.653      53.433
  O     -169.801    -377.808      52.530
  O     -171.035    -375.935      53.756
  H     -164.955    -374.353      55.074
  H     -171.398    -376.722      54.198
  H     -170.330    -370.451      53.780
  H     -169.024    -372.260      52.638
  H     -165.474    -372.669      53.149
  H     -167.683    -374.505      54.244
  H     -166.385    -376.324      53.184
  H     -166.070    -374.845      50.834
  H     -168.737    -368.462      56.484
  H     -168.553    -374.875      50.492
  H     -170.203    -368.655      55.568
  H     -167.926    -376.449      51.054
  P     -163.745    -376.406      52.481
  C     -162.379    -376.386      54.667
  O     -163.264    -377.130      53.831
  O     -162.628    -376.073      51.547
  O     -164.726    -377.492      51.810
  H     -164.222    -378.021      51.149
  H     -162.130    -376.968      55.530
  H     -162.856    -375.479      54.974
  H     -161.487    -376.153      54.124

 6  7  8  9  10  11  12  13  14  15  16  26  30  31  32  33  35 0
 6-311+G(2d,p)
 ****
 37  38 0
 6-311+G(2d,p)
 ****
 1  2  3  4  5  17  18  19  20  21  22  23  24  25 0
 3-21G
 ****
 27  28  29  34  36  39  40  41  42  43  44  45  46 0
 3-21G
 ****


