%nproc=1
%NoSave
%Mem=1900MB
#P OB98/GEN NMR

erre ene a

0 1
  C     -130.487     317.062    -350.946
  O     -130.970     316.326    -352.054
  H     -131.039     316.789    -350.040
  H     -129.431     316.820    -350.800
  H     -130.581     318.135    -351.133
  P     -132.507     316.565    -352.455
  C     -133.388     314.260    -351.650
  O     -133.377     315.668    -351.449
  C     -134.771     313.697    -351.332
  O     -134.842     312.307    -351.717
  C     -135.151     313.733    -349.855
  O     -135.601     315.021    -349.457
  C     -136.285     312.715    -349.828
  O     -137.494     313.321    -350.322
  C     -135.784     311.653    -350.823
  N     -136.298     307.886    -347.396
  C     -137.171     308.799    -347.871
  N     -136.968     309.759    -348.798
  C     -135.705     309.707    -349.260
  C     -134.707     308.820    -348.891
  C     -135.039     307.877    -347.904
  N     -134.110     306.989    -347.373
  N     -133.535     309.089    -349.573
  C     -133.821     310.131    -350.330
  N     -135.120     310.536    -350.181
  O     -132.628     315.798    -353.859
  O     -132.920     317.995    -352.570
  H     -138.207     312.667    -350.194
  H     -132.534     316.442    -354.587
  H     -138.172     308.761    -347.444
  H     -133.120     310.624    -350.993
  H     -136.593     311.253    -351.442
  H     -136.497     312.335    -348.823
  H     -134.335     313.376    -349.218
  H     -135.508     314.246    -351.938
  H     -132.650     313.791    -350.991
  H     -134.310     306.718    -346.414
  H     -133.147     307.210    -347.598
  H     -133.124     314.051    -352.689
  P     -135.299     315.487    -347.951
  C     -137.695     314.999    -347.096
  O     -136.313     314.669    -347.008
  O     -135.871     316.980    -347.919
  O     -133.865     315.446    -347.547
  H     -135.167     317.597    -347.637
  H     -138.252     314.384    -346.421
  H     -138.038     314.833    -348.096
  H     -137.833     316.028    -346.838

 6  7  8  9  10  11  12  13  14  15  25  28  32  33  34  35 0
 6-311+G(2d,p)
 ****
 36  39  40 0
 6-311+G(2d,p)
 ****
 1  2  3  4  5  16  17  18  19  20  21  22  23  24 0
 3-21G
 ****
 26  27  29  30  31  37  38  41  42  43  44  45  46  47  48 0
 3-21G
 ****


