%nproc=1
%NoSave
%Mem=1900MB
#P OB98/GEN NMR

erre ene a

0 1
  C      -94.725    -198.020     315.121
  O      -95.217    -197.497     316.339
  H      -94.356    -197.210     314.489
  H      -93.899    -198.703     315.339
  H      -95.511    -198.573     314.600
  P      -96.431    -196.453     316.226
  C      -95.202    -194.562     317.494
  O      -96.304    -195.458     317.482
  C      -95.113    -193.861     318.850
  O      -96.280    -193.008     318.995
  C      -95.069    -194.819     320.051
  O      -93.984    -194.481     320.927
  C      -96.376    -194.564     320.777
  O      -96.260    -194.689     322.191
  C      -96.723    -193.144     320.352
  N     -100.316    -190.976     323.251
  C      -98.983    -190.775     323.185
  N      -98.096    -191.315     322.325
  C      -98.715    -192.117     321.441
  C     -100.069    -192.402     321.370
  C     -100.887    -191.806     322.345
  N     -102.239    -192.055     322.449
  N     -100.334    -193.277     320.333
  C      -99.155    -193.552     319.812
  N      -98.146    -192.885     320.461
  O      -97.716    -197.344     316.577
  O      -96.565    -195.801     314.892
  H      -95.763    -193.912     322.510
  H      -98.316    -197.349     315.808
  H      -98.571    -190.096     323.925
  H      -98.968    -194.252     319.008
  H      -96.192    -192.397     320.956
  H      -97.128    -195.284     320.424
  H      -94.978    -195.869     319.749
  H      -94.235    -193.205     318.848
  H      -95.335    -193.808     316.711
  H     -102.724    -191.680     323.245
  H     -102.645    -192.758     321.848
  H      -94.284    -195.119     317.291
  P      -92.662    -195.392     320.806
  C      -92.624    -195.855     323.363
  O      -91.912    -195.374     322.229
  O      -91.711    -194.522     319.852
  O      -92.916    -196.747     320.232
  H      -91.450    -195.053     319.074
  H      -92.003    -195.782     324.231
  H      -92.898    -196.877     323.205
  H      -93.507    -195.267     323.506

 6  7  8  9  10  11  12  13  14  15  25  28  32  33  34  35 0
 6-311+G(2d,p)
 ****
 36  39  40 0
 6-311+G(2d,p)
 ****
 1  2  3  4  5  16  17  18  19  20  21  22  23  24 0
 3-21G
 ****
 26  27  29  30  31  37  38  41  42  43  44  45  46  47  48 0
 3-21G
 ****


