%nproc=1
%NoSave
%Mem=1900MB
#P OB98/GEN NMR

erre ene a

0 1
  C     -243.265       6.831     483.266
  O     -241.927       6.866     482.810
  P     -240.823       7.733     483.582
  C     -240.940       9.682     481.891
  O     -241.167       9.263     483.240
  C     -241.456      11.099     481.664
  O     -242.885      11.168     481.914
  C     -240.833      12.148     482.570
  O     -239.534      12.485     482.127
  C     -241.854      13.278     482.474
  O     -241.638      14.063     481.291
  C     -243.187      12.495     482.374
  N     -243.913      12.480     483.639
  C     -244.376      13.713     484.099
  O     -244.142      14.740     483.459
  N     -245.059      13.769     485.298
  C     -245.240      12.678     485.979
  N     -245.915      12.792     487.158
  C     -244.743      11.356     485.549
  C     -244.087      11.331     484.380
  O     -239.405       7.326     483.347
  O     -241.268       7.600     485.123
  H     -242.252      14.825     481.354
  H     -241.060       6.709     485.490
  H     -244.899      10.481     486.158
  H     -243.680      10.410     483.990
  H     -243.835      12.947     481.610
  H     -241.804      13.959     483.331
  H     -240.805      11.771     483.610
  H     -241.280      11.366     480.609
  H     -246.210      13.717     487.430
  H     -241.469       8.988     481.226
  H     -246.077      12.019     487.786
  H     -239.867       9.623     481.675
  P     -238.449      13.040     483.168
  C     -238.923      15.488     482.533
  O     -238.880      14.527     483.584
  O     -237.023      12.885     482.751
  O     -238.746      12.203     484.505
  H     -237.895      11.905     484.893
  H     -239.525      16.335     482.852
  H     -239.363      15.051     481.622
  H     -237.911      15.837     482.312
  H     -243.845       6.202     482.623
  H     -243.671       7.821     483.257
  H     -243.292       6.443     484.263

 3  4  5  6  7  8  9  10  11  12  13  23  27  28  29  30  32 0
 6-311+G(2d,p)
 ****
 34  35 0
 6-311+G(2d,p)
 ****
 1  2  14  15  16  17  18  19  20  21  22  24  25  26 0
 3-21G
 ****
 31  33  36  37  38  39  40  41  42  43  44  45  46 0
 3-21G
 ****


