%nproc=1
%NoSave
%Mem=1900MB
#P OB98/GEN NMR

erre ene a

0 1
  C      254.286    -549.019      71.396
  O      255.484    -549.485      71.975
  H      254.093    -548.004      71.758
  H      253.457    -549.664      71.699
  H      254.351    -548.995      70.305
  P      256.239    -550.719      71.297
  C      258.555    -549.592      71.106
  O      257.445    -550.139      70.405
  C      259.523    -548.880      70.161
  O      258.856    -547.766      69.531
  C      260.741    -548.307      70.892
  O      261.816    -549.222      71.048
  C      261.137    -547.145      69.985
  O      262.038    -547.573      68.950
  C      259.800    -546.695      69.384
  N      259.100    -541.643      69.020
  C      259.853    -542.475      68.210
  N      260.526    -541.874      67.208
  N      259.943    -543.768      68.391
  C      259.294    -544.208      69.493
  C      258.533    -543.479      70.379
  C      258.380    -542.061      70.132
  O      257.712    -541.286      70.808
  N      258.057    -544.261      71.403
  C      258.606    -545.440      71.183
  N      259.294    -545.479      69.992
  O      255.198    -551.223      70.182
  O      256.606    -551.841      72.220
  H      262.759    -548.082      69.368
  H      255.293    -552.185      70.058
  H      259.047    -540.665      68.815
  H      258.496    -546.310      71.819
  H      259.895    -546.498      68.309
  H      261.656    -546.370      70.553
  H      260.566    -540.874      67.078
  H      260.453    -547.898      71.865
  H      261.236    -542.415      66.713
  H      259.822    -549.569      69.362
  H      259.056    -550.429      71.595
  H      258.208    -548.909      71.890
  P      261.874    -550.218      72.296
  C      262.325    -552.478      71.032
  O      261.452    -551.672      71.798
  O      260.624    -549.754      73.183
  O      263.148    -550.202      73.071
  H      260.917    -549.175      73.912
  H      261.846    -553.408      70.806
  H      263.220    -552.664      71.589
  H      262.570    -551.973      70.121

 6  7  8  9  10  11  12  13  14  15  26  29  33  34 0
 6-311+G(2d,p)
 ****
 36  38  39  40  41 0
 6-311+G(2d,p)
 ****
 1  2  3  4  5  16  17  18  19  20  21  22  23  24  25 0
 3-21G
 ****
 27  28  30  31  32  35  37  42  43  44  45  46  47 0
 3-21G
 ****
 48  49 0
 3-21G
 ****


