%nproc=1
%NoSave
%Mem=1900MB
#P OB98/GEN NMR

erre ene a

0 1
  C     -295.210    -343.453     763.261
  O     -295.342    -344.590     762.434
  H     -295.282    -342.561     762.636
  H     -294.238    -343.454     763.758
  H     -296.012    -343.427     764.002
  P     -295.211    -346.045     763.094
  C     -293.412    -346.883     761.441
  O     -294.739    -347.044     761.930
  C     -293.403    -346.896     759.910
  O     -293.788    -348.229     759.477
  C     -294.393    -345.883     759.310
  O     -293.795    -345.017     758.355
  C     -295.550    -346.767     758.847
  O     -296.306    -346.226     757.789
  C     -294.866    -348.102     758.530
  N     -295.763    -349.253     758.614
  C     -296.657    -349.443     757.568
  O     -296.749    -348.734     756.573
  N     -297.485    -350.534     757.686
  C     -297.517    -351.414     758.730
  O     -298.277    -352.371     758.781
  C     -296.560    -351.145     759.819
  C     -295.743    -350.092     759.715
  O     -296.397    -346.508     763.874
  O     -293.907    -345.936     764.023
  H     -296.916    -346.930     757.476
  H     -294.180    -345.878     764.959
  H     -298.130    -350.694     756.932
  H     -296.565    -351.816     760.671
  H     -295.032    -349.862     760.498
  H     -294.442    -348.085     757.529
  H     -296.237    -346.909     759.690
  H     -294.759    -345.197     760.081
  H     -292.378    -346.717     759.560
  H     -292.809    -347.712     761.834
  H     -292.997    -345.938     761.811
  P     -293.112    -343.613     758.689
  C     -294.279    -342.498     756.609
  O     -293.093    -342.729     757.356
  O     -291.852    -343.670     759.481
  O     -294.217    -342.859     759.594
  H     -293.720    -342.293     760.221
  H     -294.053    -341.888     755.760
  H     -294.997    -341.999     757.225
  H     -294.680    -343.433     756.279

 6  7  8  9  10  11  12  13  14  15  16  26  31  32  33  34  35 0
 6-311+G(2d,p)
 ****
 36  37 0
 6-311+G(2d,p)
 ****
 1  2  3  4  5  17  18  19  20  21  22  23  24  25 0
 3-21G
 ****
 27  28  29  30  38  39  40  41  42  43  44  45 0
 3-21G
 ****


