%nproc=1
%NoSave
%Mem=1900MB
#P OB98/GEN NMR

erre ene a

0 1
  C       89.937     340.179     -70.454
  O       88.741     340.800     -70.880
  H       90.104     339.288     -71.065
  H       89.853     339.876     -69.410
  H       90.791     340.851     -70.579
  P       88.367     342.241     -70.289
  C       85.964     341.412     -69.845
  O       86.781     342.410     -70.448
  C       84.555     341.473     -70.426
  O       83.826     342.576     -69.845
  C       84.513     341.693     -71.933
  O       84.837     340.502     -72.628
  C       83.079     342.171     -72.111
  O       82.168     341.059     -72.112
  C       82.887     343.039     -70.844
  N       83.050     344.468     -71.096
  C       82.155     345.318     -70.456
  O       81.238     344.914     -69.745
  N       82.337     346.659     -70.684
  C       83.255     347.209     -71.533
  O       83.342     348.417     -71.739
  C       84.154     346.260     -72.205
  C       84.014     344.956     -71.962
  O       89.173     343.386     -70.805
  O       88.550     342.058     -68.708
  H       82.450     340.468     -71.387
  H       89.406     342.433     -68.430
  H       81.690     347.291     -70.241
  H       84.889     346.662     -72.892
  H       84.663     344.241     -72.456
  H       81.882     342.880     -70.425
  H       82.925     342.706     -73.046
  H       85.190     342.507     -72.217
  H       84.033     340.545     -70.153
  H       85.924     341.595     -68.765
  H       86.416     340.431     -70.022
  P       85.583     340.560     -74.040
  C       83.773     339.813     -75.691
  O       84.938     339.423     -74.976
  O       87.075     340.535     -73.973
  O       85.059     341.915     -74.706
  H       85.762     342.594     -74.676
  H       83.424     338.991     -76.280
  H       84.007     340.637     -76.332
  H       83.011     340.105     -74.999

 6  7  8  9  10  11  12  13  14  15  16  26  31  32  33  34  35 0
 6-311+G(2d,p)
 ****
 36  37 0
 6-311+G(2d,p)
 ****
 1  2  3  4  5  17  18  19  20  21  22  23  24  25 0
 3-21G
 ****
 27  28  29  30  38  39  40  41  42  43  44  45 0
 3-21G
 ****


