%nproc=1
%NoSave
%Mem=1900MB
#P OB98/GEN NMR

erre ene a

0 1
  C       94.772    -424.648    -251.977
  O       94.512    -423.432    -252.646
  H       94.169    -424.685    -251.066
  H       95.829    -424.719    -251.701
  H       94.498    -425.500    -252.609
  P       95.326    -423.099    -253.985
  C       97.780    -422.579    -254.598
  O       96.853    -422.855    -253.549
  C       98.602    -421.330    -254.256
  O       97.781    -420.167    -254.544
  C       99.007    -421.281    -252.772
  O      100.410    -421.087    -252.583
  C       98.066    -420.234    -252.187
  O       98.560    -419.575    -251.043
  C       97.785    -419.314    -253.384
  N       96.525    -418.582    -253.282
  C       96.320    -417.822    -252.129
  O       97.125    -417.697    -251.207
  N       95.120    -417.161    -252.065
  C       94.126    -417.200    -252.997
  O       93.075    -416.579    -252.885
  C       94.390    -418.037    -254.176
  C       95.560    -418.679    -254.267
  O       94.740    -422.030    -254.850
  O       95.395    -424.503    -254.754
  H       97.970    -418.818    -250.854
  H       94.743    -424.511    -255.479
  H       94.967    -416.600    -251.240
  H       93.622    -418.097    -254.935
  H       95.784    -419.308    -255.122
  H       98.584    -418.582    -253.503
  H       97.139    -420.733    -251.893
  H       98.818    -422.244    -252.283
  H       99.473    -421.289    -254.921
  H       97.210    -422.420    -255.517
  H       98.448    -423.439    -254.732
  P      101.414    -422.215    -252.069
  C      102.121    -423.152    -249.715
  O      101.198    -422.393    -250.490
  O      102.826    -422.088    -252.540
  O      100.812    -423.575    -252.692
  H      101.573    -424.162    -252.879
  H      101.809    -423.155    -248.691
  H      103.094    -422.714    -249.790
  H      102.153    -424.157    -250.081

 6  7  8  9  10  11  12  13  14  15  16  26  31  32  33  34  35 0
 6-311+G(2d,p)
 ****
 36  37 0
 6-311+G(2d,p)
 ****
 1  2  3  4  5  17  18  19  20  21  22  23  24  25 0
 3-21G
 ****
 27  28  29  30  38  39  40  41  42  43  44  45 0
 3-21G
 ****


