%nproc=1
%NoSave
%Mem=1900MB
#P OB98/GEN NMR

erre ene a

0 1
  C     1437.771    -894.620     140.306
  O     1438.916    -895.280     140.790
  H     1436.976    -895.360     140.173
  H     1437.973    -894.160     139.345
  H     1437.436    -893.870     141.023
  P     1440.264    -894.440     141.008
  C     1440.263    -894.620     143.582
  O     1440.167    -893.750     142.458
  C     1438.901    -894.680     144.308
  O     1437.911    -895.200     143.374
  C     1438.948    -895.610     145.540
  O     1438.466    -894.990     146.739
  C     1438.185    -896.850     145.070
  O     1437.565    -897.600     146.080
  C     1437.214    -896.280     144.003
  N     1436.786    -897.250     143.024
  C     1435.508    -897.800     143.164
  O     1434.718    -897.500     144.070
  N     1435.145    -898.720     142.218
  C     1435.905    -899.160     141.184
  O     1435.523    -900.000     140.375
  C     1437.241    -898.550     141.084
  C     1437.625    -897.650     142.009
  O     1440.622    -893.500     139.897
  O     1441.390    -895.560     141.227
  H     1436.965    -897.000     146.559
  H     1441.909    -895.650     140.396
  H     1434.218    -899.120     142.321
  H     1437.892    -898.890     140.265
  H     1438.607    -897.200     141.962
  H     1436.317    -895.870     144.495
  H     1438.902    -897.510     144.558
  H     1439.972    -895.900     145.785
  H     1438.604    -893.660     144.593
  H     1441.024    -894.230     144.244
  H     1440.531    -895.630     143.258
  P     1439.119    -893.670     147.391
  C     1437.090    -892.180     148.065
  O     1438.108    -892.460     147.137
  O     1440.573    -893.450     147.076
  O     1438.990    -893.950     148.982
  H     1439.781    -893.520     149.385
  H     1436.519    -891.341     147.726
  H     1437.526    -891.953     149.015
  H     1436.450    -893.032     148.160

 6  7  8  9  10  11  12  13  14  15  16  26  31  32  33  34  35 0
 6-311+G(2d,p)
 ****
 36  37 0
 6-311+G(2d,p)
 ****
 1  2  3  4  5  17  18  19  20  21  22  23  24  25 0
 3-21G
 ****
 27  28  29  30  38  39  40  41  42  43  44  45 0
 3-21G
 ****


