%nproc=1
%NoSave
%Mem=1900MB
#P OB98/GEN NMR

erre ene a

0 1
  C      -92.145      80.615      44.512
  O      -93.135      80.820      43.524
  H      -91.963      79.542      44.607
  H      -92.480      80.999      45.479
  H      -91.211      81.103      44.221
  P      -93.642      82.313      43.248
  C      -95.405      83.805      44.415
  O      -94.440      82.769      44.561
  C      -96.587      83.575      45.354
  O      -97.319      82.398      44.958
  C      -96.191      83.348      46.808
  O      -95.816      84.565      47.418
  C      -97.462      82.711      47.346
  O      -98.469      83.703      47.598
  C      -97.873      81.807      46.158
  N      -97.435      80.422      46.302
  C      -98.276      79.586      47.046
  O      -99.307      80.031      47.548
  N      -97.909      78.273      47.214
  C      -96.831      77.823      46.656
  N      -96.528      76.513      46.857
  C      -95.937      78.663      45.835
  C      -96.289      79.940      45.711
  O      -94.384      82.534      41.966
  O      -92.306      83.192      43.315
  H      -98.766      84.017      46.721
  H      -91.931      83.312      42.422
  H      -95.052      78.242      45.380
  H      -95.686      80.625      45.124
  H      -98.964      81.807      46.036
  H      -97.295      82.180      48.283
  H      -95.383      82.611      46.871
  H      -97.265      84.433      45.260
  H      -97.183      75.971      47.411
  H      -95.742      83.785      43.373
  H      -95.812      76.020      46.345
  H      -94.953      84.784      44.611
  P      -94.375      84.757      48.095
  C      -93.569      84.439      50.516
  O      -94.447      83.981      49.500
  O      -93.895      86.166      48.179
  O      -93.423      83.809      47.227
  H      -93.203      84.239      46.363
  H      -93.707      83.850      51.399
  H      -93.781      85.465      50.735
  H      -92.557      84.348      50.181

 6  7  8  9  10  11  12  13  14  15  16  26  30  31  32  33  35 0
 6-311+G(2d,p)
 ****
 37  38 0
 6-311+G(2d,p)
 ****
 1  2  3  4  5  17  18  19  20  21  22  23  24  25 0
 3-21G
 ****
 27  28  29  34  36  39  40  41  42  43  44  45  46 0
 3-21G
 ****


