%nproc=1
%NoSave
%Mem=1900MB
#P OB98/GEN NMR

erre ene a

0 1
  C      574.772     380.515     378.860
  O      574.585     381.063     380.157
  P      573.136     381.687     380.483
  C      573.665     383.841     381.880
  O      573.293     382.468     381.877
  C      573.822     384.331     383.311
  O      572.545     384.347     383.978
  C      574.736     383.464     384.182
  O      576.094     383.802     383.947
  C      574.245     383.801     385.578
  O      574.817     385.053     386.039
  C      572.730     383.942     385.371
  N      569.091     381.909     388.232
  C      569.724     383.131     388.337
  N      569.294     383.944     389.319
  N      570.685     383.522     387.550
  C      571.029     382.603     386.612
  C      570.488     381.340     386.421
  C      569.383     380.947     387.272
  O      568.721     379.913     387.156
  N      571.112     380.684     385.386
  C      572.004     381.547     384.945
  N      571.976     382.736     385.638
  O      572.264     380.401     380.845
  O      572.540     382.502     379.380
  H      574.555     385.771     385.430
  H      571.728     380.122     380.075
  H      568.341     381.664     388.860
  H      572.668     381.368     384.113
  H      572.292     384.740     385.995
  H      574.528     383.045     386.320
  H      568.574     383.707     389.988
  H      574.559     382.400     383.979
  H      569.740     384.850     389.410
  H      574.188     385.361     383.286
  H      572.893     384.421     381.377
  H      574.611     383.955     381.333
  P      576.989     382.741     383.135
  C      579.178     382.816     384.543
  O      578.523     383.165     383.340
  O      576.684     383.092     381.597
  O      576.679     381.309     383.433
  H      576.670     382.280     381.072
  H      580.235     382.679     384.329
  H      578.781     381.876     384.962
  H      579.059     383.614     385.273
  H      575.769     380.137     378.773
  H      574.614     381.276     378.125
  H      574.074     379.719     378.705

 3  4  5  6  7  8  9  10  11  12  23  26  30  31 0
 6-311+G(2d,p)
 ****
 33  35  36  37  38 0
 6-311+G(2d,p)
 ****
 1  2  13  14  15  16  17  18  19  20  21  22  24  25 0
 3-21G
 ****
 27  28  29  32  34  39  40  41  42  43  44  45  46  47  48  49 0
 3-21G
 ****


