%nproc=1
%NoSave
%Mem=1900MB
#P OB98/GEN NMR

erre ene a

0 1
  C     -284.778     498.641    -263.744
  O     -284.070     499.691    -264.381
  P     -282.638     500.202    -263.898
  C     -281.695     500.867    -266.228
  O     -282.113     501.308    -264.946
  C     -281.819     501.959    -267.308
  O     -283.182     502.449    -267.349
  C     -280.940     503.165    -266.936
  O     -279.559     503.165    -267.258
  C     -281.719     504.390    -267.430
  O     -281.249     504.850    -268.708
  C     -283.156     503.864    -267.549
  N     -286.086     507.894    -266.533
  C     -285.526     507.502    -267.740
  N     -285.616     508.408    -268.748
  N     -284.929     506.347    -267.923
  C     -284.848     505.606    -266.796
  C     -285.369     505.870    -265.550
  C     -286.066     507.128    -265.375
  O     -286.502     507.547    -264.303
  N     -285.022     504.912    -264.620
  C     -284.252     504.079    -265.298
  N     -284.087     504.480    -266.609
  O     -281.672     499.151    -263.421
  O     -283.030     501.104    -262.617
  H     -281.141     504.070    -269.280
  H     -282.314     501.013    -261.957
  H     -286.471     508.831    -266.426
  H     -283.773     503.211    -264.882
  H     -283.552     504.049    -268.561
  H     -281.606     505.226    -266.729
  H     -285.934     509.345    -268.600
  H     -280.960     503.245    -265.840
  H     -285.069     508.220    -269.587
  H     -281.616     501.559    -268.303
  H     -282.300     499.996    -266.490
  H     -280.656     500.533    -266.179
  P     -278.448     504.135    -266.645
  C     -276.624     502.425    -267.190
  O     -277.040     503.780    -267.316
  O     -278.276     503.628    -265.136
  O     -278.798     505.599    -266.658
  H     -277.889     504.355    -264.582
  H     -275.557     502.352    -267.398
  H     -277.169     501.816    -267.919
  H     -276.814     502.055    -266.183
  H     -285.709     498.482    -264.247
  H     -284.965     498.904    -262.724
  H     -284.195     497.745    -263.780

 3  4  5  6  7  8  9  10  11  12  23  26  30  31 0
 6-311+G(2d,p)
 ****
 33  35  36  37  38 0
 6-311+G(2d,p)
 ****
 1  2  13  14  15  16  17  18  19  20  21  22  24  25 0
 3-21G
 ****
 27  28  29  32  34  39  40  41  42  43  44  45  46  47  48  49 0
 3-21G
 ****


