%nproc=1
%NoSave
%Mem=1900MB
#P OB98/GEN NMR

erre ene a

0 1
  C     -129.557     173.868     172.265
  O     -128.292     173.300     171.992
  H     -129.852     174.492     171.416
  H     -129.498     174.496     173.156
  H     -130.309     173.088     172.406
  P     -127.767     172.188     173.022
  C     -126.576     170.805     171.177
  O     -126.441     171.556     172.373
  C     -125.209     170.590     170.533
  O     -124.777     171.794     169.859
  C     -124.101     170.233     171.518
  O     -124.104     168.848     171.835
  C     -122.873     170.607     170.705
  O     -122.611     169.586     169.721
  C     -123.333     171.899     170.018
  N     -120.384     176.017     170.221
  C     -120.401     174.981     169.306
  N     -119.495     175.047     168.307
  N     -121.226     173.969     169.366
  C     -122.069     174.030     170.425
  C     -122.151     175.003     171.395
  C     -121.238     176.120     171.313
  O     -121.197     177.075     172.083
  N     -123.139     174.725     172.302
  C     -123.641     173.576     171.895
  N     -123.022     173.108     170.762
  O     -128.844     171.009     172.876
  O     -127.641     172.634     174.439
  H     -121.740     169.788     169.333
  H     -128.976     170.594     173.750
  H     -119.721     176.766     170.135
  H     -124.450     173.047     172.378
  H     -122.900     172.018     169.018
  H     -121.975     170.701     171.316
  H     -118.799     175.773     168.231
  H     -124.146     170.856     172.418
  H     -119.510     174.317     167.607
  H     -125.315     169.809     169.770
  H     -127.222     171.349     170.480
  H     -127.037     169.841     171.411
  P     -123.874     168.436     173.372
  C     -126.070     167.057     173.508
  O     -124.648     167.045     173.565
  O     -124.790     169.483     174.165
  O     -122.456     168.470     173.828
  H     -124.468     169.580     175.081
  H     -126.441     166.064     173.653
  H     -126.386     167.420     172.552
  H     -126.452     167.696     174.276

 6  7  8  9  10  11  12  13  14  15  26  29  33  34 0
 6-311+G(2d,p)
 ****
 36  38  39  40  41 0
 6-311+G(2d,p)
 ****
 1  2  3  4  5  16  17  18  19  20  21  22  23  24  25 0
 3-21G
 ****
 27  28  30  31  32  35  37  42  43  44  45  46  47 0
 3-21G
 ****
 48  49 0
 3-21G
 ****


