%nproc=1
%NoSave
%Mem=1900MB
#P OB98/GEN NMR

erre ene a

0 1
  C      120.461      10.969    -183.634
  O      120.741       9.822    -184.442
  P      120.521       8.308    -183.981
  C      121.299       5.957    -184.848
  O      121.173       7.352    -185.088
  C      121.620       5.147    -186.123
  O      120.457       5.137    -186.993
  C      122.751       5.815    -186.909
  O      124.100       5.573    -186.556
  C      122.427       5.521    -188.371
  O      123.092       4.356    -188.855
  C      120.909       5.306    -188.354
  N      119.164       7.317    -192.730
  C      119.957       6.202    -192.536
  N      120.382       5.562    -193.651
  N      120.313       5.760    -191.357
  C      119.891       6.539    -190.339
  C      119.119       7.680    -190.403
  C      118.682       8.127    -191.709
  O      117.971       9.103    -191.934
  N      118.908       8.215    -189.153
  C      119.569       7.420    -188.342
  N      120.180       6.381    -189.009
  O      119.147       7.968    -183.515
  O      121.519       8.160    -182.720
  H      122.713       4.132    -189.726
  H      121.095       7.528    -182.101
  H      118.898       7.595    -193.656
  H      119.635       7.542    -187.266
  H      120.638       4.380    -188.886
  H      122.747       6.351    -189.006
  H      120.243       5.916    -194.582
  H      122.624       6.900    -186.797
  H      121.132       4.879    -193.523
  H      121.820       4.100    -185.880
  H      120.352       5.621    -184.413
  H      122.068       5.774    -184.093
  P      125.079       6.591    -185.802
  C      127.385       6.379    -184.699
  O      126.536       5.930    -185.742
  O      124.602       6.532    -184.275
  O      125.048       7.998    -186.315
  H      124.952       7.299    -183.778
  H      128.418       6.099    -184.935
  H      127.097       5.895    -183.759
  H      127.328       7.466    -184.586
  H      120.697      11.857    -184.182
  H      121.053      10.931    -182.744
  H      119.423      10.976    -183.372

 3  4  5  6  7  8  9  10  11  12  23  26  30  31 0
 6-311+G(2d,p)
 ****
 33  35  36  37  38 0
 6-311+G(2d,p)
 ****
 1  2  13  14  15  16  17  18  19  20  21  22  24  25 0
 3-21G
 ****
 27  28  29  32  34  39  40  41  42  43  44  45  46  47  48  49 0
 3-21G
 ****


