%nproc=1
%NoSave
%Mem=1900MB
#P OB98/GEN NMR

erre ene a

0 1
  C      283.066     149.213     490.621
  O      283.656     148.348     489.646
  P      285.168     147.860     489.852
  C      285.602     147.891     487.311
  O      285.643     147.120     488.503
  C      285.765     146.998     486.082
  O      286.935     146.165     486.186
  C      284.608     146.031     485.882
  O      283.465     146.717     485.382
  C      285.213     145.015     484.937
  O      285.167     145.482     483.565
  C      286.674     144.965     485.417
  N      286.977     143.766     486.197
  C      286.656     142.541     485.586
  O      286.116     142.528     484.473
  N      286.944     141.372     486.253
  C      287.497     141.427     487.423
  N      287.757     140.241     488.039
  C      287.842     142.693     488.096
  C      287.555     143.814     487.433
  O      285.438     147.111     491.123
  O      286.004     149.233     489.804
  H      285.751     146.274     483.532
  H      286.798     149.134     490.359
  H      288.314     142.681     489.081
  H      287.771     144.784     487.868
  H      287.371     144.989     484.557
  H      284.690     144.062     484.957
  H      284.358     145.544     486.835
  H      285.872     147.641     485.202
  H      287.506     139.386     487.551
  H      286.391     148.641     487.328
  H      288.235     140.175     488.931
  H      284.648     148.436     487.285
  P      282.157     146.761     486.314
  C      280.310     146.466     484.527
  O      280.942     147.343     485.434
  O      282.488     147.976     487.327
  O      281.870     145.493     487.070
  H      282.103     147.783     488.197
  H      279.340     146.888     484.256
  H      280.148     145.480     484.954
  H      280.919     146.377     483.624
  H      282.061     149.441     490.334
  H      283.633     150.118     490.685
  H      283.063     148.727     491.574

 3  4  5  6  7  8  9  10  11  12  13  23  27  28  29  30  32 0
 6-311+G(2d,p)
 ****
 34  35 0
 6-311+G(2d,p)
 ****
 1  2  14  15  16  17  18  19  20  21  22  24  25  26 0
 3-21G
 ****
 31  33  36  37  38  39  40  41  42  43  44  45  46 0
 3-21G
 ****


