%nproc=1
%NoSave
%Mem=1900MB
#P OB98/GEN NMR

erre ene a

0 1
  C       82.069     111.720     -18.649
  O       82.459     111.463     -17.308
  P       83.131     112.664     -16.483
  C       85.324     114.020     -16.681
  O       84.608     112.860     -17.081
  C       86.132     114.587     -17.844
  O       85.217     115.157     -18.820
  C       87.125     115.694     -17.444
  O       88.370     115.481     -18.125
  C       86.497     116.956     -18.015
  O       87.468     117.964     -18.276
  C       85.817     116.389     -19.262
  N       85.101     120.098     -22.618
  C       86.190     119.264     -22.442
  N       87.260     119.496     -23.237
  N       86.231     118.298     -21.563
  C       85.079     118.163     -20.860
  C       83.932     118.918     -20.951
  C       83.924     120.026     -21.884
  O       83.025     120.852     -22.026
  N       82.968     118.469     -20.083
  C       83.532     117.446     -19.466
  N       84.830     117.251     -19.870
  O       83.384     112.006     -15.046
  O       82.306     113.901     -16.374
  H       88.003     117.657     -19.032
  H       82.948     112.545     -14.355
  H       85.130     120.838     -23.298
  H       83.054     116.842     -18.705
  H       86.568     116.150     -20.031
  H       85.766     117.350     -17.300
  H       87.281     120.198     -23.959
  H       87.303     115.769     -16.367
  H       88.058     118.881     -23.138
  H       86.657     113.760     -18.342
  H       86.006     113.758     -15.866
  H       84.610     114.767     -16.319
  P       89.684     115.481     -17.204
  C       90.601     117.113     -15.387
  O       89.678     116.888     -16.437
  O       90.879     115.630     -18.262
  O       89.825     114.266     -16.347
  H       91.705     115.266     -17.895
  H       91.354     116.318     -15.325
  H       90.059     117.162     -14.441
  H       91.109     118.067     -15.560
  H       81.639     110.836     -19.071
  H       82.926     112.008     -19.221
  H       81.347     112.510     -18.665

 3  4  5  6  7  8  9  10  11  12  23  26  30  31  33  0
 6-311+G(2d,p)
 ****
 35  36  37  38 0
 6-311+G(2d,p)
 ****
 1  2  13  14  15  16  17  18  19  20  21  22  24  25  27  28  29 0
 3-21G
 ****
 32  34  39  40  41  42  43  44  45  46  47  48  49 0
 3-21G
 ****


