%nproc=1
%NoSave
%Mem=1900MB
#P OB98/GEN NMR

erre ene a

0 1
  C       73.587     -39.113    -209.139
  O       73.758     -38.836    -210.532
  P       74.617     -37.542    -210.927
  C       77.006     -38.262    -210.186
  O       76.113     -38.006    -211.263
  C       78.413     -37.774    -210.541
  O       79.304     -37.890    -209.416
  C       79.064     -38.582    -211.650
  O       78.553     -38.199    -212.911
  C       80.540     -38.252    -211.458
  O       80.929     -37.096    -212.217
  C       80.640     -37.971    -209.942
  N       81.426     -38.971    -209.237
  C       82.808     -38.756    -209.212
  O       83.294     -37.780    -209.785
  N       83.601     -39.667    -208.562
  C       83.065     -40.710    -208.009
  N       83.902     -41.580    -207.385
  C       81.614     -40.987    -208.037
  C       80.861     -40.085    -208.663
  O       74.774     -36.766    -209.536
  O       73.973     -36.682    -211.966
  H       80.299     -36.390    -211.963
  H       74.797     -35.805    -209.686
  H       81.214     -41.874    -207.569
  H       79.785     -40.207    -208.733
  H       81.104     -36.993    -209.766
  H       81.179     -39.076    -211.789
  H       78.899     -39.654    -211.479
  H       78.350     -36.717    -210.834
  H       84.891     -41.361    -207.387
  H       77.028     -39.330    -209.962
  H       83.593     -42.426    -206.928
  H       76.630     -37.760    -209.288
  P       78.240     -39.357    -213.971
  C       76.488     -40.909    -212.915
  O       76.709     -39.759    -213.710
  O       79.020     -40.608    -213.341
  O       78.629     -39.112    -215.389
  H       78.986     -41.366    -213.951
  H       75.431     -40.949    -212.644
  H       77.084     -40.866    -212.001
  H       76.739     -41.807    -213.484
  H       72.998     -39.998    -209.021
  H       73.091     -38.289    -208.670
  H       74.544     -39.259    -208.684

 3  4  5  6  7  8  9  10  11  12  13  21  23  27  28  29  30  32 0
 6-311+G(2d,p)
 ****
 34  35 0
 6-311+G(2d,p)
 ****
 1  2  14  15  16  17  18  19  20  22  24  25  26 0
 3-21G
 ****
 31  33  36  37  38  39  40  41  42  43  44  45  46 0
 3-21G
 ****


