%nproc=1
%NoSave
%Mem=1900MB
#P OB98/GEN NMR

erre ene a

0 1
  C     -382.112    -541.663    -599.907
  O     -383.467    -541.921    -600.221
  H     -381.669    -542.576    -599.502
  H     -382.042    -540.870    -599.157
  H     -381.568    -541.377    -600.810
  P     -384.315    -540.688    -600.801
  C     -386.014    -542.330    -601.836
  O     -385.814    -541.260    -600.919
  C     -386.856    -543.433    -601.192
  O     -386.105    -544.008    -600.095
  C     -388.187    -542.930    -600.630
  O     -389.197    -543.915    -600.861
  C     -387.927    -542.811    -599.139
  O     -389.119    -542.923    -598.369
  C     -386.921    -543.938    -598.913
  N     -386.318    -545.046    -593.966
  C     -387.140    -545.541    -594.908
  N     -387.226    -545.204    -596.212
  C     -386.302    -544.273    -596.523
  C     -385.398    -543.674    -595.667
  C     -385.424    -544.087    -594.326
  N     -384.606    -543.572    -593.350
  N     -384.646    -542.732    -596.347
  C     -385.081    -542.776    -597.592
  N     -386.098    -543.683    -597.742
  O     -383.775    -540.054    -602.038
  O     -384.411    -539.730    -599.522
  H     -388.900    -542.740    -597.433
  H     -384.620    -540.231    -598.718
  H     -387.832    -546.316    -594.576
  H     -384.708    -542.171    -598.416
  H     -387.404    -544.907    -598.765
  H     -387.471    -541.838    -598.920
  H     -388.493    -541.978    -601.064
  H     -387.008    -544.234    -601.924
  H     -385.047    -542.745    -602.146
  H     -384.683    -543.935    -592.416
  H     -383.922    -542.865    -593.607
  H     -386.520    -541.932    -602.716
  P     -390.367    -543.581    -601.903
  C     -390.862    -546.117    -601.848
  O     -391.410    -544.804    -601.911
  O     -389.922    -543.109    -603.250
  O     -391.192    -542.437    -601.142
  H     -391.499    -541.782    -601.796
  H     -391.655    -546.835    -601.860
  H     -390.297    -546.225    -600.946
  H     -390.222    -546.277    -602.691

 6  7  8  9  10  11  12  13  14  15  25  28  32  33  34  35 0
 6-311+G(2d,p)
 ****
 36  39  40 0
 6-311+G(2d,p)
 ****
 1  2  3  4  5  16  17  18  19  20  21  22  23  24 0
 3-21G
 ****
 26  27  29  30  31  37  38  41  42  43  44  45  46  47 0
 3-21G
 ****
 48 0
 3-21G
 ****


