%nproc=1
%NoSave
%Mem=1900MB
#P OB98/GEN NMR

erre ene a

0 1
  C     1115.958    -897.310    -334.871
  O     1116.760    -897.810    -335.955
  P     1116.246    -897.560    -337.450
  C     1117.727    -895.620    -338.377
  O     1116.483    -896.020    -337.813
  C     1118.560    -894.840    -337.352
  O     1118.913    -895.650    -336.218
  C     1119.871    -894.310    -337.914
  O     1119.675    -893.110    -338.611
  C     1120.642    -894.050    -336.607
  O     1120.225    -892.810    -336.037
  C     1120.199    -895.230    -335.732
  N     1123.758    -897.820    -333.089
  C     1123.039    -896.710    -332.791
  N     1122.125    -896.070    -333.554
  C     1121.961    -896.710    -334.720
  C     1122.614    -897.840    -335.183
  C     1123.549    -898.420    -334.302
  N     1124.271    -899.550    -334.605
  N     1122.191    -898.200    -336.436
  C     1121.286    -897.290    -336.761
  N     1121.117    -896.350    -335.761
  O     1114.650    -897.680    -337.315
  O     1116.780    -898.550    -338.447
  H     1119.246    -892.810    -336.020
  H     1114.278    -898.070    -338.118
  H     1123.229    -896.280    -331.821
  H     1120.744    -897.260    -337.673
  H     1120.093    -894.930    -334.680
  H     1121.728    -893.980    -336.792
  H     1120.396    -895.080    -338.514
  H     1117.939    -894.000    -336.992
  H     1117.556    -895.000    -339.263
  H     1124.901    -899.920    -333.928
  H     1124.097    -900.000    -335.482
  H     1118.250    -896.530    -338.719
  P     1119.747    -893.180    -340.227
  C     1117.954    -891.340    -340.520
  O     1118.314    -892.680    -340.741
  O     1119.724    -894.760    -340.524
  O     1120.937    -892.520    -340.834
  H     1120.205    -894.970    -341.337
  H     1117.109    -891.080    -341.181
  H     1118.781    -890.660    -340.760
  H     1117.653    -891.170    -339.489
  H     1116.426    -897.552    -333.940
  H     1114.987    -897.759    -334.909
  H     1115.864    -896.248    -334.958

 3  4  5  6  7  8  9  10  11  12  22  25  29  30  31  32 0
 6-311+G(2d,p)
 ****
 33  36  37 0
 6-311+G(2d,p)
 ****
 1  2  13  14  15  16  17  18  19  20  21  23  24  26 0
 3-21G
 ****
 27  28  34  35  38  39  40  41  42  43  44  45  46  47  48 0
 3-21G
 ****


