%nproc=1
%NoSave
%Mem=1900MB
#P OB98/GEN NMR

erre ene a

0 1
  C     -385.094     256.677     163.190
  O     -385.755     257.808     162.611
  P     -387.346     257.859     162.414
  C     -388.188     258.720     164.692
  O     -387.942     259.039     163.326
  C     -388.385     259.980     165.541
  O     -387.194     260.790     165.537
  C     -389.518     260.889     165.071
  O     -390.772     260.378     165.481
  C     -389.119     262.215     165.713
  O     -389.523     262.246     167.095
  C     -387.588     262.173     165.601
  N     -386.181     266.769     163.853
  C     -386.610     266.356     165.066
  N     -386.973     265.117     165.455
  C     -386.833     264.243     164.438
  C     -386.408     264.519     163.145
  C     -386.075     265.854     162.863
  N     -385.651     266.272     161.621
  N     -386.417     263.376     162.377
  C     -386.817     262.425     163.197
  N     -387.080     262.897     164.453
  O     -388.030     256.543     162.597
  O     -387.554     258.404     160.923
  H     -389.411     263.161     167.409
  H     -388.395     258.064     160.565
  H     -386.674     267.131     165.830
  H     -386.933     261.379     162.930
  H     -387.109     262.595     166.495
  H     -389.575     263.077     165.220
  H     -389.485     260.990     163.980
  H     -388.558     259.659     166.578
  H     -387.333     258.151     165.074
  H     -385.462     267.253     161.486
  H     -385.615     265.603     160.865
  H     -389.086     258.091     164.748
  P     -392.028     260.448     164.492
  C     -393.350     258.286     164.886
  O     -393.231     259.663     165.200
  O     -391.760     260.057     163.078
  O     -392.503     261.980     164.591
  H     -392.914     262.240     163.749
  H     -393.846     258.174     163.917
  H     -393.960     257.802     165.657
  H     -392.369     257.807     164.854
  H     -384.040     256.859     163.224
  H     -385.287     255.808     162.596
  H     -385.461     256.519     164.183

 3  4  5  6  7  8  9  10  11  12  22  25  29  30  31  32 0
 6-311+G(2d,p)
 ****
 33  36  37 0
 6-311+G(2d,p)
 ****
 1  2  13  14  15  16  17  18  19  20  21  23  24  26 0
 3-21G
 ****
 27  28  34  35  38  39  40  41  42  43  44  45  46  47  48 0
 3-21G
 ****


