%nproc=1
%NoSave
%Mem=1900MB
#P OB98/GEN NMR

erre ene a

0 1
  C       42.958    -130.324    -126.961
  O       43.269    -128.950    -127.061
  H       43.791    -130.900    -127.373
  H       42.058    -130.551    -127.538
  H       42.815    -130.614    -125.917
  P       42.270    -127.881    -126.406
  C       43.379    -127.399    -124.131
  O       42.343    -128.090    -124.818
  C       43.468    -127.896    -122.692
  O       42.192    -127.751    -122.031
  C       43.834    -129.371    -122.569
  O       45.210    -129.571    -122.819
  C       43.385    -129.651    -121.143
  O       44.354    -129.177    -120.195
  C       42.087    -128.814    -121.057
  N       40.880    -129.613    -121.275
  C       40.112    -129.883    -120.148
  O       40.406    -129.490    -119.021
  N       39.007    -130.666    -120.354
  C       38.662    -131.264    -121.531
  O       37.797    -132.129    -121.621
  C       39.467    -130.882    -122.700
  C       40.532    -130.099    -122.519
  O       40.892    -127.848    -126.976
  O       43.025    -126.484    -126.617
  H       42.630    -126.016    -127.377
  H       43.870    -129.021    -119.361
  H       38.469    -130.907    -119.535
  H       39.186    -131.284    -123.666
  H       41.158    -129.830    -123.362
  H       42.005    -128.335    -120.073
  H       43.246    -130.717    -120.953
  H       43.223    -129.968    -123.256
  H       44.196    -127.270    -122.159
  H       43.144    -126.329    -124.133
  H       44.326    -127.557    -124.657
  P       45.769    -130.998    -123.277
  C       47.088    -130.757    -125.460
  O       45.820    -131.023    -124.878
  O       45.085    -132.173    -122.661
  O       47.319    -130.962    -122.869
  H       47.524    -131.747    -122.325
  H       47.007    -130.799    -126.526
  H       47.794    -131.489    -125.127
  H       47.418    -129.783    -125.165

 6  7  8  9  10  11  12  13  14  15  16  27  31  32  33  34  35 0
 6-311+G(2d,p)
 ****
 36  37 0
 6-311+G(2d,p)
 ****
 1  2  3  4  5  17  18  19  20  21  22  23  24  25 0
 3-21G
 ****
 26  28  29  30  38  39  40  41  42  43  44  45 0
 3-21G
 ****


