%nproc=1
%NoSave
%Mem=1900MB
#P OB98/GEN NMR

erre ene a

0 1
  C      967.383    -577.368    -444.787
  O      968.355    -577.485    -445.813
  H      966.401    -577.563    -445.220
  H      967.397    -576.355    -444.379
  H      967.561    -578.097    -443.991
  P      969.905    -577.417    -445.409
  C      970.166    -575.192    -446.692
  O      970.325    -575.864    -445.450
  C      970.550    -573.713    -446.538
  O      969.486    -573.001    -445.832
  C      971.823    -573.483    -445.723
  O      972.985    -573.806    -446.478
  C      971.660    -572.027    -445.355
  O      972.077    -571.183    -446.416
  C      970.136    -571.912    -445.135
  N      969.773    -571.920    -443.718
  C      969.465    -570.682    -443.140
  O      969.457    -569.614    -443.789
  N      969.192    -570.681    -441.794
  C      969.376    -571.774    -440.964
  O      969.358    -571.670    -439.740
  C      969.625    -573.043    -441.612
  C      969.831    -573.070    -442.943
  O      970.810    -578.339    -446.169
  O      969.907    -577.747    -443.837
  H      970.189    -578.671    -443.704
  H      971.953    -570.257    -446.097
  H      969.013    -569.782    -441.370
  H      969.700    -573.926    -441.001
  H      970.076    -574.001    -443.443
  H      969.751    -570.981    -445.583
  H      972.242    -571.772    -444.458
  H      971.795    -574.101    -444.819
  H      970.636    -573.266    -447.547
  H      969.120    -575.262    -447.006
  H      970.798    -575.665    -447.452
  P      974.396    -573.975    -445.737
  C      975.626    -572.460    -447.416
  O      975.282    -572.674    -446.048
  O      975.078    -575.284    -445.994
  O      974.040    -573.805    -444.180
  H      974.427    -574.566    -443.689
  H      976.213    -571.570    -447.501
  H      974.733    -572.355    -447.996
  H      976.190    -573.295    -447.777

 6  7  8  9  10  11  12  13  14  15  16  27  31  32  33  34  35 0
 6-311+G(2d,p)
 ****
 36  37 0
 6-311+G(2d,p)
 ****
 1  2  3  4  5  17  18  19  20  21  22  23  24  25 0
 3-21G
 ****
 26  28  29  30  38  39  40  41  42  43  44  45 0
 3-21G
 ****


