%nproc=1
%NoSave
%Mem=1900MB
#P OB98/GEN NMR

erre ene a

0 1
  C     -427.835     -79.539     -36.687
  O     -427.730     -79.526     -38.111
  P     -427.882     -78.112     -38.855
  C     -425.435     -77.907     -39.712
  O     -426.805     -78.037     -40.051
  C     -424.567     -77.718     -40.962
  O     -424.554     -78.931     -41.769
  C     -425.035     -76.582     -41.874
  O     -423.896     -76.031     -42.537
  C     -425.890     -77.304     -42.898
  O     -426.082     -76.525     -44.080
  C     -425.070     -78.585     -43.076
  N     -428.400     -79.840     -46.655
  C     -427.826     -78.616     -46.366
  N     -428.163     -77.585     -47.165
  N     -426.992     -78.428     -45.377
  C     -426.724     -79.560     -44.681
  C     -427.231     -80.827     -44.863
  C     -428.168     -81.016     -45.957
  O     -428.719     -82.076     -46.251
  N     -426.729     -81.707     -43.936
  C     -425.932     -80.974     -43.193
  N     -425.859     -79.677     -43.619
  O     -427.305     -77.080     -37.778
  O     -429.286     -77.775     -39.239
  H     -426.626     -77.060     -44.703
  H     -428.030     -76.554     -37.397
  H     -429.046     -79.932     -47.428
  H     -425.376     -81.325     -42.329
  H     -424.214     -78.437     -43.752
  H     -426.876     -77.529     -42.471
  H     -428.758     -77.675     -47.980
  H     -425.580     -75.779     -41.364
  H     -427.723     -76.689     -47.002
  H     -423.532     -77.532     -40.646
  H     -425.097     -78.793     -39.169
  H     -425.322     -77.066     -39.020
  P     -423.943     -74.463     -42.887
  C     -421.376     -74.235     -43.248
  O     -422.667     -74.177     -43.817
  O     -423.556     -73.760     -41.501
  O     -425.249     -73.978     -43.423
  H     -423.923     -72.853     -41.467
  H     -420.901     -75.171     -43.542
  H     -421.409     -74.170     -42.151
  H     -420.783     -73.399     -43.628
  H     -427.715     -80.540     -36.330
  H     -428.797     -79.170     -36.397
  H     -427.073     -78.916     -36.267

 3  4  5  6  7  8  9  10  11  12  23  26  30  31 0
 6-311+G(2d,p)
 ****
 33  35  36  37  38 0
 6-311+G(2d,p)
 ****
 1  2  13  14  15  16  17  18  19  20  21  22  24  25 0
 3-21G
 ****
 27  28  29  32  34  39  40  41  42  43  44  45  46  47  48  49 0
 3-21G
 ****


