%nproc=1
%NoSave
%Mem=1900MB
#P OB98/GEN NMR

erre ene a

0 1
  C      129.847      -9.418     175.692
  O      131.016      -9.739     176.424
  P      132.442      -9.806     175.702
  C      133.244      -7.517     176.538
  O      132.901      -8.294     175.397
  C      134.710      -7.087     176.497
  O      134.936      -6.268     175.313
  C      135.172      -6.267     177.713
  O      136.541      -6.611     177.949
  C      135.090      -4.836     177.204
  O      135.891      -3.932     177.953
  C      135.539      -5.036     175.759
  N      137.073      -1.706     172.186
  C      137.751      -2.634     172.899
  N      137.274      -3.466     173.854
  C      135.957      -3.270     174.038
  C      135.142      -2.343     173.405
  C      135.752      -1.541     172.423
  N      135.070      -0.617     171.657
  N      133.854      -2.407     173.912
  C      133.897      -3.355     174.828
  N      135.125      -3.947     174.891
  O      132.518     -10.731     174.531
  O      133.444     -10.261     176.865
  H      135.595      -3.957     178.883
  H      133.701     -11.196     176.736
  H      138.812      -2.730     172.673
  H      133.074      -3.650     175.470
  H      136.626      -5.140     175.676
  H      134.050      -4.490     177.252
  H      134.572      -6.430     178.614
  H      135.327      -7.987     176.386
  H      133.071      -8.131     177.425
  H      135.574      -0.194     170.892
  H      134.052      -0.655     171.627
  H      132.594      -6.637     176.593
  P      137.169      -6.439     179.417
  C      137.177      -8.976     179.757
  O      136.729      -7.726     180.254
  O      136.906      -5.120     180.069
  O      138.741      -6.680     179.180
  H      139.242      -6.323     179.938
  H      136.520      -9.296     178.939
  H      137.130      -9.719     180.561
  H      138.203      -8.910     179.392
  H      129.002      -9.424     176.349
  H      129.702     -10.141     174.917
  H      129.954      -8.446     175.258

 3  4  5  6  7  8  9  10  11  12  22  25  29  30  31  32 0
 6-311+G(2d,p)
 ****
 33  36  37 0
 6-311+G(2d,p)
 ****
 1  2  13  14  15  16  17  18  19  20  21  23  24  26 0
 3-21G
 ****
 27  28  34  35  38  39  40  41  42  43  44  45  46  47  48 0
 3-21G
 ****


