%nproc=1
%NoSave
%Mem=1900MB
#P OB98/GEN NMR

erre ene a

0 1
  C     1160.058    1206.558    -491.390
  O     1159.503    1206.064    -490.175
  P     1158.525    1206.924    -489.242
  C     1159.574    1206.961    -486.895
  O     1158.602    1206.376    -487.745
  C     1160.562    1205.926    -486.310
  O     1161.638    1205.728    -487.237
  C     1161.195    1206.315    -484.979
  O     1160.290    1206.144    -483.938
  C     1162.400    1205.375    -484.962
  O     1162.026    1204.059    -484.499
  C     1162.801    1205.375    -486.448
  N     1163.948    1206.196    -486.729
  C     1165.217    1205.771    -486.237
  O     1165.250    1204.745    -485.535
  N     1166.310    1206.511    -486.496
  C     1166.189    1207.621    -487.156
  N     1167.353    1208.317    -487.445
  C     1164.912    1208.148    -487.638
  C     1163.850    1207.397    -487.389
  O     1157.144    1207.061    -489.772
  O     1159.229    1208.371    -489.141
  H     1162.854    1203.524    -484.590
  H     1158.533    1209.045    -489.032
  H     1164.858    1209.096    -488.151
  H     1162.859    1207.708    -487.695
  H     1163.034    1204.316    -486.746
  H     1163.211    1205.755    -484.302
  H     1161.531    1207.345    -485.009
  H     1160.014    1204.999    -486.218
  H     1168.221    1207.928    -487.096
  H     1159.043    1207.454    -486.060
  H     1167.367    1209.200    -487.914
  H     1160.119    1207.750    -487.427
  P     1160.205    1207.237    -482.757
  C     1160.275    1205.586    -480.820
  O     1159.513    1206.553    -481.498
  O     1159.639    1208.564    -483.161
  O     1161.740    1207.432    -482.276
  H     1161.857    1208.337    -481.969
  H     1159.901    1205.488    -479.785
  H     1161.334    1205.835    -480.774
  H     1160.133    1204.613    -481.326
  H     1160.676    1205.804    -491.832
  H     1160.647    1207.427    -491.185
  H     1159.268    1206.813    -492.065

 3  4  5  6  7  8  9  10  11  12  13  23  27  28  29  30  32 0
 6-311+G(2d,p)
 ****
 34  35 0
 6-311+G(2d,p)
 ****
 1  2  14  15  16  17  18  19  20  21  22  24  25  26 0
 3-21G
 ****
 31  33  36  37  38  39  40  41  42  43  44  45  46 0
 3-21G
 ****


