%nproc=1
%NoSave
%Mem=1900MB
#P OB98/GEN NMR

erre ene a

0 1
  C     -308.330     476.695       8.874
  O     -308.179     475.297       9.096
  P     -308.275     474.307       7.839
  C     -306.978     474.561       5.543
  O     -306.955     474.427       6.949
  C     -305.571     474.936       5.048
  O     -305.207     476.251       5.516
  C     -304.489     473.975       5.531
  O     -304.354     472.854       4.674
  C     -303.265     474.868       5.559
  O     -302.744     475.051       4.225
  C     -303.869     476.191       6.087
  N     -303.975     476.366       7.556
  C     -303.619     477.585       8.133
  O     -303.200     478.556       7.508
  N     -303.769     477.668       9.498
  C     -304.381     476.750      10.298
  O     -304.542     476.904      11.503
  C     -304.873     475.551       9.615
  C     -304.647     475.409       8.306
  O     -309.411     474.960       6.925
  O     -308.591     472.886       8.194
  H     -301.855     475.433       4.317
  H     -310.182     474.366       6.865
  H     -303.446     478.515       9.942
  H     -305.409     474.816      10.206
  H     -305.005     474.520       7.792
  H     -303.304     477.051       5.707
  H     -302.459     474.419       6.138
  H     -304.696     473.654       6.558
  H     -305.583     474.954       3.947
  H     -307.695     475.328       5.240
  H     -307.304     473.622       5.087
  P     -305.022     471.453       5.075
  C     -307.426     471.285       5.960
  O     -306.608     471.661       4.869
  O     -304.610     470.882       6.391
  O     -304.639     470.490       3.849
  H     -303.839     469.959       4.064
  H     -308.449     471.622       5.759
  H     -307.074     471.757       6.881
  H     -307.428     470.198       6.069
  H     -308.241     477.216       9.805
  H     -309.293     476.887       8.449
  H     -307.570     477.034       8.202

 3  4  5  6  7  8  9  10  11  12  13  23  28  29  30  31  32 0
 6-311+G(2d,p)
 ****
 33  34 0
 6-311+G(2d,p)
 ****
 1  2  14  15  16  17  18  19  20  21  22  24  25  26  27 0
 3-21G
 ****
 35  36  37  38  39  40  41  42  43  44  45 0
 3-21G
 ****


