%nproc=1
%NoSave
%Mem=1900MB
#P OB98/GEN NMR

erre ene a

0 1
  C      340.849     654.301    -616.804
  O      341.445     654.084    -618.065
  H      340.191     655.171    -616.873
  H      341.611     654.500    -616.047
  H      340.250     653.433    -616.510
  P      342.513     652.899    -618.221
  C      341.080     651.371    -619.729
  O      341.673     651.549    -618.447
  C      340.161     650.142    -619.718
  O      339.177     650.344    -618.671
  C      339.413     649.954    -621.046
  O      339.572     648.646    -621.595
  C      338.002     650.424    -620.730
  O      336.991     649.849    -621.538
  C      337.868     650.125    -619.230
  N      336.872     650.951    -618.551
  C      335.548     650.522    -618.595
  O      335.153     649.490    -619.139
  N      334.641     651.330    -617.960
  C      334.922     652.495    -617.310
  O      334.067     653.175    -616.754
  C      336.330     652.908    -617.319
  C      337.230     652.127    -617.930
  O      343.548     652.819    -617.149
  O      343.174     653.158    -619.656
  H      337.100     650.198    -622.442
  H      344.051     653.566    -619.540
  H      333.678     651.023    -617.974
  H      336.589     653.835    -616.825
  H      338.281     652.403    -617.953
  H      337.597     649.080    -619.075
  H      337.959     651.511    -620.883
  H      339.837     650.605    -621.827
  H      340.751     649.260    -619.457
  H      341.888     651.233    -620.456
  H      340.505     652.262    -619.996
  P      340.813     648.178    -622.483
  C      341.647     646.294    -620.856
  O      341.904     647.534    -621.508
  O      341.302     649.166    -623.488
  O      340.226     646.911    -623.294
  H      340.676     646.905    -624.159
  H      342.488     646.028    -620.250
  H      341.481     645.533    -621.590
  H      340.779     646.389    -620.238

 6  7  8  9  10  11  12  13  14  15  16  26  31  32  33  34  35 0
 6-311+G(2d,p)
 ****
 36  37 0
 6-311+G(2d,p)
 ****
 1  2  3  4  5  17  18  19  20  21  22  23  24  25 0
 3-21G
 ****
 27  28  29  30  38  39  40  41  42  43  44  45 0
 3-21G
 ****


