%nproc=1
%NoSave
%Mem=1900MB
#P OB98/GEN NMR

erre ene a

0 1
  C      -98.011     574.435    -409.749
  O      -98.697     574.857    -408.593
  P      -98.187     574.447    -407.132
  C     -100.441     573.442    -406.429
  O      -99.457     574.422    -406.143
  C     -101.257     573.101    -405.182
  O     -100.374     572.620    -404.142
  C     -102.061     574.274    -404.611
  O     -103.310     573.756    -404.153
  C     -101.215     574.736    -403.442
  O     -101.966     575.465    -402.485
  C     -100.652     573.394    -402.957
  N      -99.460     573.559    -402.139
  C      -99.648     574.088    -400.857
  O     -100.748     574.510    -400.514
  N      -98.563     574.135    -400.005
  C      -97.379     573.852    -400.459
  N      -96.349     573.844    -399.561
  C      -97.118     573.536    -401.878
  C      -98.192     573.362    -402.639
  O      -97.023     575.237    -406.619
  O      -97.806     572.894    -407.264
  H      -96.892     572.758    -406.948
  H     -102.796     574.971    -402.295
  H      -96.104     573.433    -402.238
  H      -98.105     573.093    -403.684
  H     -101.405     572.848    -402.380
  H     -100.403     575.382    -403.808
  H     -102.251     575.059    -405.354
  H     -101.934     572.269    -405.444
  H      -96.572     574.041    -398.596
  H      -99.931     572.541    -406.787
  H      -95.478     573.349    -399.748
  H     -101.091     573.789    -407.241
  P     -104.521     573.626    -405.205
  C     -105.105     576.151    -405.341
  O     -105.521     574.859    -404.957
  O     -105.357     572.393    -404.594
  O     -104.144     573.326    -406.618
  H     -105.863     571.965    -405.309
  H     -105.872     576.870    -405.039
  H     -104.978     576.215    -406.427
  H     -104.167     576.421    -404.841
  H      -98.509     574.813    -410.617
  H      -97.995     573.366    -409.784
  H      -97.008     574.806    -409.724

 3  4  5  6  7  8  9  10  11  12  13  24  27  28  29  30  32 0
 6-311+G(2d,p)
 ****
 34  35 0
 6-311+G(2d,p)
 ****
 1  2  14  15  16  17  18  19  20  21  22  23  25  26 0
 3-21G
 ****
 31  33  36  37  38  39  40  41  42  43  44  45  46 0
 3-21G
 ****


