%nproc=1
%NoSave
%Mem=1900MB
#P OB98/GEN NMR

erre ene a

0 1
  C      199.493    -899.160     798.583
  O      199.464    -898.000     799.404
  P      199.009    -896.600     798.739
  C      201.277    -896.330     797.594
  O      199.869    -896.360     797.415
  C      201.978    -896.920     796.354
  O      201.730    -896.130     795.176
  C      203.498    -896.970     796.501
  O      203.898    -898.010     797.356
  C      203.918    -897.150     795.047
  O      203.824    -898.520     794.619
  C      202.851    -896.290     794.283
  N      203.352    -895.010     793.820
  C      204.472    -895.060     792.993
  O      204.994    -896.150     792.711
  N      204.971    -893.880     792.505
  C      204.434    -892.750     792.828
  N      204.963    -891.620     792.328
  C      203.265    -892.660     793.721
  C      202.769    -893.810     794.174
  O      198.920    -895.420     799.695
  O      197.528    -896.950     798.155
  H      204.674    -898.920     794.879
  H      196.985    -896.150     798.175
  H      202.828    -891.700     793.973
  H      201.926    -893.840     794.862
  H      202.482    -896.840     793.408
  H      204.938    -896.820     794.873
  H      203.872    -896.020     796.870
  H      201.591    -897.940     796.189
  H      205.782    -891.690     791.730
  H      201.544    -896.910     798.483
  H      204.579    -890.700     792.479
  H      201.605    -895.310     797.768
  P      204.002    -897.690     798.915
  C      206.550    -897.210     799.029
  O      205.218    -896.700     799.125
  O      204.512    -899.090     799.547
  O      202.706    -897.250     799.557
  H      204.150    -899.180     800.435
  H      207.240    -896.370     798.874
  H      206.635    -897.880     798.142
  H      206.828    -897.740     799.918
  H      199.812    -900.000     799.164
  H      200.175    -899.007     797.773
  H      198.514    -899.346     798.194

 3  4  5  6  7  8  9  10  11  12  13  23  27  28  29  30  32 0
 6-311+G(2d,p)
 ****
 34  35 0
 6-311+G(2d,p)
 ****
 1  2  14  15  16  17  18  19  20  21  22  24  25  26 0
 3-21G
 ****
 31  33  36  37  38  39  40  41  42  43  44  45  46 0
 3-21G
 ****


