%nproc=1
%NoSave
%Mem=1900MB
#P OB98/GEN NMR

erre ene a

0 1
  C      329.930     -38.782     -40.734
  O      329.684     -40.088     -41.221
  H      328.975     -38.260     -40.635
  H      330.565     -38.228     -41.431
  H      330.407     -38.834     -39.751
  P      330.971     -41.013     -41.473
  C      333.095     -40.770     -42.913
  O      331.881     -40.160     -42.489
  C      333.227     -40.691     -44.436
  O      332.362     -41.698     -45.026
  C      332.823     -39.333     -45.014
  O      333.695     -39.003     -46.096
  C      331.420     -39.575     -45.547
  O      331.075     -38.674     -46.598
  C      331.499     -41.043     -45.972
  N      327.188     -41.591     -48.649
  C      328.373     -41.022     -48.954
  N      329.484     -40.936     -48.182
  C      329.291     -41.556     -47.003
  C      328.137     -42.173     -46.552
  C      327.041     -42.174     -47.435
  N      325.819     -42.728     -47.122
  N      328.318     -42.656     -45.270
  C      329.564     -42.345     -44.958
  N      330.185     -41.663     -45.969
  O      330.687     -42.417     -41.894
  O      331.759     -40.857     -40.090
  H      330.141     -38.836     -46.847
  H      331.774     -39.929     -39.789
  H      328.446     -40.573     -49.941
  H      330.053     -42.577     -44.016
  H      331.918     -41.167     -46.976
  H      330.692     -39.443     -44.738
  H      332.843     -38.538     -44.269
  H      334.254     -40.955     -44.713
  H      333.122     -41.819     -42.596
  H      325.093     -42.697     -47.821
  H      325.697     -43.184     -46.228
  H      333.925     -40.240     -42.433
  P      334.724     -37.787     -45.907
  C      334.708     -35.211     -46.092
  O      333.956     -36.413     -46.221
  O      336.050     -37.946     -46.565
  O      334.888     -37.721     -44.309
  H      335.815     -37.499     -44.095
  H      334.085     -34.374     -46.327
  H      335.540     -35.237     -46.764
  H      335.064     -35.119     -45.087

 6  7  8  9  10  11  12  13  14  15  25  28  32  33  34  35 0
 6-311+G(2d,p)
 ****
 36  39  40 0
 6-311+G(2d,p)
 ****
 1  2  3  4  5  16  17  18  19  20  21  22  23  24 0
 3-21G
 ****
 26  27  29  30  31  37  38  41  42  43  44  45  46  47 0
 3-21G
 ****
 48 0
 3-21G
 ****


