%nproc=1
%NoSave
%Mem=1900MB
#P OB98/GEN NMR

erre ene a

0 1
  C      424.258    -738.934     583.696
  O      425.315    -739.865     583.862
  P      424.992    -741.419     583.610
  C      422.983    -742.956     584.233
  O      423.715    -741.766     584.516
  C      421.544    -742.820     584.728
  O      420.768    -741.997     583.829
  C      420.785    -744.138     584.812
  O      421.090    -744.857     586.006
  C      419.352    -743.645     584.850
  O      419.008    -743.193     586.180
  C      419.399    -742.454     583.875
  N      415.394    -742.643     580.793
  C      415.524    -742.054     582.033
  N      414.403    -741.485     582.552
  N      416.633    -742.017     582.709
  C      417.674    -742.633     582.075
  C      417.661    -743.248     580.839
  C      416.412    -743.285     580.111
  O      416.226    -743.838     579.028
  N      418.896    -743.750     580.525
  C      419.658    -743.437     581.563
  N      418.947    -742.798     582.547
  O      426.197    -742.172     584.351
  O      424.887    -741.803     582.167
  H      419.555    -742.407     586.355
  H      426.255    -743.097     584.034
  H      414.503    -742.644     580.307
  H      420.706    -743.672     581.652
  H      418.784    -741.615     584.242
  H      418.629    -744.425     584.574
  H      413.501    -741.528     582.109
  H      420.942    -744.749     583.917
  H      414.459    -741.099     583.497
  H      421.569    -742.314     585.709
  H      423.462    -743.800     584.712
  H      423.000    -743.130     583.149
  P      420.546    -746.354     586.094
  C      418.219    -747.399     585.550
  O      418.956    -746.242     585.944
  O      420.765    -746.731     587.642
  O      421.230    -747.325     585.177
  H      420.864    -747.694     587.745
  H      417.164    -747.227     585.759
  H      418.544    -748.282     586.109
  H      418.357    -747.576     584.477
  H      424.618    -737.946     583.895
  H      423.466    -739.169     584.376
  H      423.893    -738.984     582.692

 3  4  5  6  7  8  9  10  11  12  23  26  30  31 0
 6-311+G(2d,p)
 ****
 33  35  36  37  38 0
 6-311+G(2d,p)
 ****
 1  2  13  14  15  16  17  18  19  20  21  22  24  25 0
 3-21G
 ****
 27  28  29  32  34  39  40  41  42  43  44  45  46  47  48  49 0
 3-21G
 ****


