%nproc=1
%NoSave
%Mem=1900MB
#P OB98/GEN NMR

erre ene a

0 1
  C      -11.779      -2.928      16.956
  O      -12.778      -2.853      15.955
  P      -12.340      -3.012      14.421
  C      -11.252      -5.034      13.145
  O      -11.395      -4.306      14.350
  C       -9.836      -5.606      13.033
  O       -8.895      -4.508      12.879
  C       -9.386      -6.429      14.247
  O       -8.555      -7.489      13.756
  C       -8.563      -5.432      15.043
  O       -7.652      -6.059      15.931
  C       -7.899      -4.642      13.911
  N       -7.412      -3.326      14.327
  C       -6.143      -3.251      14.892
  O       -5.418      -4.226      15.080
  N       -5.734      -1.998      15.269
  C       -6.474      -0.855      15.201
  O       -6.063       0.238      15.570
  C       -7.824      -1.004      14.641
  C       -8.219      -2.208      14.228
  O      -11.332      -1.783      14.258
  O      -13.485      -3.020      13.468
  H      -10.809      -1.611      15.060
  H       -8.165      -6.606      16.554
  H       -4.802      -1.915      15.646
  H       -8.448      -0.121      14.584
  H       -9.210      -2.343      13.813
  H       -7.071      -5.221      13.485
  H       -9.233      -4.798      15.634
  H      -10.228      -6.845      14.807
  H       -9.781      -6.210      12.119
  H      -11.436      -4.371      12.296
  H      -11.999      -5.834      13.115
  P       -8.515      -8.867      14.586
  C      -10.250     -10.785      14.986
  O      -10.007      -9.443      14.629
  O       -8.309      -8.296      16.072
  O       -7.438      -9.816      14.177
  H       -8.924      -7.577      16.288
  H      -11.297     -10.887      15.280
  H       -9.621     -11.096      15.824
  H      -10.061     -11.433      14.126
  H      -12.229      -2.804      17.919
  H      -11.057      -2.155      16.798
  H      -11.297      -3.882      16.908

 3  4  5  6  7  8  9  10  11  12  13  24  28  29  30  31  32 0
 6-311+G(2d,p)
 ****
 33  34 0
 6-311+G(2d,p)
 ****
 1  2  14  15  16  17  18  19  20  21  22  23  25  26  27 0
 3-21G
 ****
 35  36  37  38  39  40  41  42  43  44  45 0
 3-21G
 ****


