%nproc=1
%NoSave
%Mem=1900MB
#P OB98/GEN NMR

erre ene a

0 1
  C     -409.203      75.156    -269.374
  O     -409.381      74.111    -270.307
  H     -410.123      75.750    -269.334
  H     -408.384      75.804    -269.692
  H     -409.000      74.762    -268.374
  P     -408.292      72.934    -270.364
  C     -407.495      73.267    -272.796
  O     -408.225      72.448    -271.894
  C     -408.383      73.704    -273.967
  O     -409.092      72.534    -274.475
  C     -409.448      74.758    -273.588
  O     -409.655      75.586    -274.743
  C     -410.650      73.871    -273.329
  O     -411.846      74.613    -273.272
  C     -410.496      72.870    -274.477
  N     -411.330      71.682    -274.335
  C     -412.635      71.758    -274.812
  O     -413.107      72.748    -275.360
  N     -413.400      70.634    -274.629
  C     -412.992      69.481    -274.022
  O     -413.715      68.495    -273.898
  C     -411.613      69.474    -273.510
  C     -410.854      70.559    -273.692
  O     -408.462      71.842    -269.364
  O     -406.896      73.703    -270.173
  H     -406.619      73.639    -269.239
  H     -412.614      74.008    -273.167
  H     -414.349      70.667    -274.965
  H     -411.268      68.579    -273.008
  H     -409.830      70.591    -273.326
  H     -410.711      73.348    -275.439
  H     -410.549      73.368    -272.360
  H     -409.153      75.377    -272.738
  H     -407.743      74.068    -274.781
  H     -406.646      72.693    -273.173
  H     -407.125      74.152    -272.262
  P     -409.027      77.056    -274.897
  C     -411.013      78.047    -276.206
  O     -409.624      77.756    -276.213
  O     -407.531      77.074    -274.843
  O     -409.639      77.915    -273.691
  H     -408.969      78.541    -273.373
  H     -411.285      78.508    -277.132
  H     -411.234      78.712    -275.398
  H     -411.567      77.140    -276.083

 6  7  8  9  10  11  12  13  14  15  16  27  31  32  33  34  35 0
 6-311+G(2d,p)
 ****
 36  37 0
 6-311+G(2d,p)
 ****
 1  2  3  4  5  17  18  19  20  21  22  23  24  25 0
 3-21G
 ****
 26  28  29  30  38  39  40  41  42  43  44  45 0
 3-21G
 ****


