%nproc=1
%NoSave
%Mem=1900MB
#P OB98/GEN NMR

erre ene a

0 1
  C      -47.275      98.313    -102.828
  O      -48.004      99.198    -103.680
  P      -49.603      99.236    -103.578
  C      -49.900      97.866    -105.740
  O      -50.200      97.962    -104.356
  C      -51.113      97.349    -106.526
  O      -51.384      95.956    -106.193
  C      -52.392      98.140    -106.220
  O      -53.233      98.208    -107.384
  C      -53.091      97.270    -105.193
  O      -54.485      97.556    -105.121
  C      -52.743      95.879    -105.719
  N      -55.933      92.550    -103.490
  C      -56.099      93.392    -104.534
  N      -55.198      94.232    -105.086
  C      -54.015      94.138    -104.458
  C      -53.694      93.319    -103.387
  C      -54.721      92.499    -102.890
  N      -54.561      91.663    -101.808
  N      -52.379      93.499    -103.005
  C      -51.930      94.447    -103.802
  N      -52.868      94.840    -104.717
  O      -50.243     100.538    -103.922
  O      -49.869      98.854    -102.043
  H      -54.889      96.894    -104.531
  H      -50.580      99.424    -101.691
  H      -57.089      93.395    -104.981
  H      -50.947      94.890    -103.751
  H      -53.375      95.597    -106.570
  H      -52.653      97.441    -104.203
  H      -52.222      99.157    -105.852
  H      -50.885      97.383    -107.597
  H      -49.049      97.198    -105.888
  H      -55.384      91.202    -101.451
  H      -53.712      91.726    -101.264
  H      -49.579      98.848    -106.107
  P      -53.146      99.569    -108.239
  C      -55.092     100.530    -106.783
  O      -53.800     100.704    -107.319
  O      -53.697      99.440    -109.621
  O      -51.577      99.881    -108.200
  H      -51.178      99.858    -107.314
  H      -55.298     101.349    -106.089
  H      -55.164      99.586    -106.238
  H      -55.837     100.553    -107.583
  H      -46.228      98.412    -103.023
  H      -47.579      97.305    -103.017
  H      -47.472      98.559    -101.806

 3  4  5  6  7  8  9  10  11  12  22  25  29  30  31  32 0
 6-311+G(2d,p)
 ****
 33  36  37 0
 6-311+G(2d,p)
 ****
 1  2  13  14  15  16  17  18  19  20  21  23  24  26 0
 3-21G
 ****
 27  28  34  35  38  39  40  41  42  43  44  45  46  47  48 0
 3-21G
 ****


