%nproc=1
%NoSave
%Mem=1900MB
#P OB98/GEN NMR

erre ene a

0 1
  C       28.325     294.384     187.613
  O       27.238     293.627     188.110
  H       29.127     294.423     188.356
  H       28.706     293.903     186.705
  H       27.996     295.400     187.365
  P       26.552     294.144     189.463
  C       27.150     293.699     191.958
  O       27.619     293.829     190.624
  C       28.337     293.760     192.918
  O       29.122     294.947     192.658
  C       27.935     293.839     194.386
  O       27.631     292.571     194.937
  C       29.200     294.408     194.994
  O       30.201     293.382     195.110
  C       29.618     295.443     193.935
  N       30.575     300.079     195.890
  C       31.350     298.984     195.760
  N       31.029     297.789     195.206
  C       29.762     297.808     194.756
  C       28.853     298.853     194.819
  C       29.307     300.039     195.423
  N       28.506     301.152     195.593
  N       27.641     298.484     194.272
  C       27.820     297.237     193.874
  N       29.074     296.772     194.173
  O       25.394     293.072     189.741
  O       26.055     295.552     189.448
  H       29.832     292.689     195.699
  H       24.773     293.413     190.412
  H       32.360     299.072     196.144
  H       27.079     296.628     193.372
  H       30.708     295.548     193.851
  H       29.048     294.814     196.002
  H       27.115     294.551     194.541
  H       28.975     292.891     192.732
  H       26.640     292.734     192.066
  H       28.871     301.898     196.168
  H       27.525     301.078     195.382
  H       26.447     294.507     192.176
  P       26.338     292.465     195.890
  C       25.943     293.029     198.392
  O       26.671     293.316     197.205
  O       26.395     290.947     196.401
  O       25.042     292.784     195.212
  H       25.498     290.596     196.550
  H       26.275     293.674     199.179
  H       26.107     292.010     198.673
  H       24.899     293.187     198.217

 6  7  8  9  10  11  12  13  14  15  25  28  32  33  34  35 0
 6-311+G(2d,p)
 ****
 36  39  40 0
 6-311+G(2d,p)
 ****
 1  2  3  4  5  16  17  18  19  20  21  22  23  24 0
 3-21G
 ****
 26  27  29  30  31  37  38  41  42  43  44  45  46  47 0
 3-21G
 ****
 48 0
 3-21G
 ****


