%nproc=1
%NoSave
%Mem=1900MB
#P OB98/GEN NMR

erre ene a

0 1
  C      146.689     -58.348     415.096
  O      145.389     -58.126     414.574
  P      144.526     -56.850     415.014
  C      143.729     -56.603     412.580
  O      143.334     -56.765     413.938
  C      142.596     -57.018     411.649
  O      142.529     -58.466     411.626
  C      141.194     -56.564     412.061
  O      140.855     -55.243     411.653
  C      140.333     -57.561     411.295
  O      140.238     -57.160     409.913
  C      141.147     -58.853     411.421
  N      137.730     -62.344     412.948
  C      137.927     -61.730     411.761
  N      138.846     -60.797     411.436
  C      139.648     -60.540     412.488
  C      139.572     -61.087     413.758
  C      138.554     -62.036     413.975
  N      138.366     -62.674     415.185
  N      140.554     -60.560     414.577
  C      141.212     -59.720     413.805
  N      140.708     -59.679     412.535
  O      145.313     -55.603     415.212
  O      143.764     -57.324     416.341
  H      141.126     -56.855     409.646
  H      143.428     -56.551     416.833
  H      137.254     -62.026     410.960
  H      142.055     -59.122     414.126
  H      141.108     -59.461     410.509
  H      139.310     -57.623     411.676
  H      141.032     -56.699     413.139
  H      142.834     -56.672     410.635
  H      144.602     -57.249     412.397
  H      137.704     -63.430     415.211
  H      139.082     -62.566     415.897
  H      144.029     -55.568     412.400
  P      140.219     -54.272     412.766
  C      141.055     -51.956     411.886
  O      139.991     -52.866     412.031
  O      140.975     -54.211     414.048
  O      138.730     -54.849     412.930
  H      138.156     -54.745     412.152
  H      140.739     -51.138     411.229
  H      141.931     -52.438     411.450
  H      141.318     -51.525     412.864
  H      147.092     -59.247     414.679
  H      146.635     -58.441     416.161
  H      147.321     -57.523     414.842

 3  4  5  6  7  8  9  10  11  12  22  25  29  30  31  32 0
 6-311+G(2d,p)
 ****
 33  36  37 0
 6-311+G(2d,p)
 ****
 1  2  13  14  15  16  17  18  19  20  21  23  24  26 0
 3-21G
 ****
 27  28  34  35  38  39  40  41  42  43  44  45  46  47  48 0
 3-21G
 ****


