%nproc=1
%NoSave
%Mem=1900MB
#P OB98/GEN NMR

erre ene a

0 1
  C      -24.715    -450.117     203.179
  O      -24.876    -448.838     203.772
  H      -25.514    -450.767     203.545
  H      -23.749    -450.542     203.471
  H      -24.783    -450.040     202.091
  P      -23.909    -447.669     203.234
  C      -21.588    -448.686     203.958
  O      -22.507    -448.382     202.909
  C      -20.164    -448.757     203.413
  O      -19.774    -447.438     202.938
  C      -19.127    -449.200     204.448
  O      -18.152    -450.023     203.794
  C      -18.484    -447.898     204.902
  O      -17.169    -448.097     205.442
  C      -18.552    -447.060     203.611
  N      -18.523    -445.625     203.888
  C      -17.761    -444.833     203.011
  O      -17.126    -445.349     202.095
  N      -17.685    -443.480     203.241
  C      -18.269    -442.967     204.277
  N      -18.146    -441.622     204.460
  C      -19.049    -443.769     205.258
  C      -19.148    -445.073     204.988
  O      -23.616    -446.843     204.574
  O      -24.489    -446.859     202.111
  H      -16.876    -447.241     205.826
  H      -23.464    -447.409     205.349
  H      -19.510    -443.294     206.107
  H      -19.708    -445.728     205.650
  H      -17.716    -447.311     202.954
  H      -19.100    -447.433     205.685
  H      -19.554    -449.745     205.281
  H      -20.152    -449.415     202.531
  H      -17.590    -441.105     203.776
  H      -21.851    -449.642     204.426
  H      -18.511    -441.129     205.262
  H      -21.671    -447.902     204.709
  P      -17.718    -451.410     204.463
  C      -15.732    -451.017     206.043
  O      -17.141    -451.143     205.931
  O      -16.885    -452.302     203.604
  O      -19.139    -452.104     204.765
  H      -19.054    -453.072     204.590
  H      -15.470    -450.842     207.065
  H      -15.399    -450.196     205.444
  H      -15.265    -451.918     205.704

 6  7  8  9  10  11  12  13  14  15  16  26  30  31  32  33  35 0
 6-311+G(2d,p)
 ****
 37  38 0
 6-311+G(2d,p)
 ****
 1  2  3  4  5  17  18  19  20  21  22  23  24  25 0
 3-21G
 ****
 27  28  29  34  36  39  40  41  42  43  44  45  46 0
 3-21G
 ****


