%nproc=1
%NoSave
%Mem=1900MB
#P OB98/GEN NMR

erre ene a

0 1
  C     -186.755     579.281    -144.003
  O     -185.924     579.980    -143.103
  H     -187.486     578.703    -143.428
  H     -186.164     578.586    -144.610
  H     -187.296     579.977    -144.649
  P     -184.751     580.869    -143.752
  C     -183.242     582.736    -142.809
  O     -184.083     581.625    -142.497
  C     -182.760     583.409    -141.519
  O     -183.875     584.147    -140.941
  C     -182.257     582.431    -140.462
  O     -181.125     583.000    -139.792
  C     -183.422     582.310    -139.483
  O     -183.011     581.928    -138.183
  C     -184.045     583.702    -139.580
  N     -187.469     585.413    -136.201
  C     -186.156     585.696    -136.384
  N     -185.321     585.209    -137.331
  C     -185.973     584.381    -138.160
  C     -187.310     583.993    -138.101
  C     -188.077     584.548    -137.049
  N     -189.398     584.252    -136.850
  N     -187.600     583.095    -139.110
  C     -186.471     582.939    -139.773
  N     -185.453     583.685    -139.225
  O     -185.161     581.744    -144.893
  O     -183.655     579.750    -144.104
  H     -182.711     580.998    -138.219
  H     -183.558     579.110    -143.380
  H     -185.724     586.411    -135.679
  H     -186.325     582.297    -140.644
  H     -183.540     584.431    -138.919
  H     -184.135     581.552    -139.859
  H     -181.979     581.461    -140.885
  H     -181.995     584.152    -141.778
  H     -183.782     583.460    -143.429
  H     -189.880     584.705    -136.084
  H     -189.877     583.613    -137.484
  H     -182.383     582.355    -143.378
  P     -179.655     582.622    -140.308
  C     -177.903     584.494    -140.695
  O     -178.618     583.714    -139.743
  O     -179.540     582.327    -141.761
  O     -179.298     581.335    -139.440
  H     -178.788     580.704    -139.982
  H     -177.254     585.174    -140.184
  H     -178.595     585.045    -141.296
  H     -177.322     583.849    -141.321

 6  7  8  9  10  11  12  13  14  15  25  28  32  33  34  35 0
 6-311+G(2d,p)
 ****
 36  39  40 0
 6-311+G(2d,p)
 ****
 1  2  3  4  5  16  17  18  19  20  21  22  23  24 0
 3-21G
 ****
 26  27  29  30  31  37  38  41  42  43  44  45  46  47 0
 3-21G
 ****
 48 0
 3-21G
 ****


