%nproc=1
%NoSave
%Mem=1900MB
#P OB98/GEN NMR

erre ene a

0 1
  C     -519.054    -824.392     326.265
  O     -517.835    -825.031     326.600
  H     -519.578    -824.993     325.518
  H     -518.852    -823.406     325.841
  H     -519.692    -824.294     327.152
  P     -517.014    -824.417     327.828
  C     -515.134    -823.840     326.125
  O     -515.944    -823.392     327.204
  C     -514.167    -822.741     325.693
  O     -514.865    -821.769     324.869
  C     -513.551    -821.957     326.844
  O     -512.438    -822.639     327.412
  C     -513.133    -820.691     326.131
  O     -511.918    -820.933     325.382
  C     -514.313    -820.453     325.173
  N     -517.127    -816.305     324.437
  C     -516.134    -816.853     323.643
  N     -515.826    -816.201     322.512
  N     -515.479    -817.945     323.952
  C     -515.872    -818.485     325.131
  C     -516.854    -818.040     325.995
  C     -517.575    -816.846     325.642
  O     -518.477    -816.331     326.294
  N     -516.973    -818.874     327.083
  C     -516.053    -819.805     326.888
  N     -515.354    -819.610     325.724
  O     -516.097    -825.643     328.310
  O     -517.840    -823.883     328.954
  H     -511.721    -820.114     324.908
  H     -516.008    -825.612     329.281
  H     -517.593    -815.453     324.165
  H     -515.870    -820.629     327.554
  H     -513.994    -820.001     324.223
  H     -512.914    -819.860     326.814
  H     -516.258    -815.325     322.250
  H     -514.303    -821.715     327.605
  H     -515.122    -816.580     321.911
  H     -513.386    -823.196     325.080
  H     -515.771    -824.114     325.278
  H     -514.584    -824.733     326.454
  P     -511.836    -822.064     328.789
  C     -509.439    -822.180     327.785
  O     -510.445    -821.367     328.395
  O     -511.376    -823.393     329.565
  O     -512.782    -821.235     329.599
  H     -511.351    -823.228     330.512
  H     -508.574    -821.584     327.580
  H     -509.816    -822.588     326.870
  H     -509.174    -822.977     328.448

 6  7  8  9  10  11  12  13  14  15  26  29  33  34 0
 6-311+G(2d,p)
 ****
 36  38  39  40  41 0
 6-311+G(2d,p)
 ****
 1  2  3  4  5  16  17  18  19  20  21  22  23  24  25 0
 3-21G
 ****
 27  28  30  31  32  35  37  42  43  44  45  46  47 0
 3-21G
 ****
 48  49 0
 3-21G
 ****


