%nproc=1
%NoSave
%Mem=1900MB
#P OB98/GEN NMR

erre ene a

0 1
  C       71.216     219.083      38.972
  O       69.917     218.782      39.484
  P       68.629     219.463      38.819
  C       66.893     219.386      40.735
  O       67.303     218.852      39.480
  C       66.325     218.271      41.618
  O       67.359     217.651      42.420
  C       65.301     218.778      42.629
  O       64.063     219.220      42.114
  C       65.272     217.654      43.649
  O       64.414     216.590      43.238
  C       66.747     217.191      43.646
  N       67.489     217.661      44.819
  C       67.130     217.092      46.038
  O       66.218     216.278      46.159
  N       67.833     217.526      47.130
  C       68.817     218.475      47.123
  O       69.402     218.840      48.136
  C       69.136     219.055      45.810
  C       68.471     218.629      44.736
  O       68.625     219.524      37.328
  O       68.662     220.950      39.433
  H       63.512     216.961      43.153
  H       68.421     221.572      38.720
  H       67.593     217.120      48.018
  H       69.906     219.814      45.769
  H       68.690     219.044      43.758
  H       66.807     216.096      43.633
  H       64.907     218.001      44.621
  H       65.738     219.652      43.135
  H       65.902     217.497      40.974
  H       66.145     220.165      40.580
  H       67.751     219.873      41.213
  P       63.475     220.687      42.373
  C       60.930     220.302      42.676
  O       61.969     220.735      41.826
  O       64.359     221.846      42.046
  O       63.244     220.660      43.963
  H       63.397     221.557      44.314
  H       59.981     220.387      42.136
  H       60.882     220.927      43.570
  H       61.077     219.255      42.958
  H       71.953     218.545      39.530
  H       71.399     220.134      39.059
  H       71.269     218.796      37.942

 3  4  5  6  7  8  9  10  11  12  13  23  28  29  30  31  32 0
 6-311+G(2d,p)
 ****
 33  34 0
 6-311+G(2d,p)
 ****
 1  2  14  15  16  17  18  19  20  21  22  24  25  26  27 0
 3-21G
 ****
 35  36  37  38  39  40  41  42  43  44  45 0
 3-21G
 ****


