%nproc=1
%NoSave
%Mem=1900MB
#P OB98/GEN NMR

erre ene a

0 1
  C     -607.893      10.442    -347.054
  O     -607.626       9.096    -346.714
  H     -607.223      10.735    -347.873
  H     -607.694      11.096    -346.198
  H     -608.928      10.566    -347.386
  P     -608.574       8.373    -345.647
  C     -607.377       6.124    -346.075
  O     -607.775       7.095    -345.105
  C     -606.738       4.926    -345.379
  O     -605.409       5.267    -344.929
  C     -607.486       4.471    -344.130
  O     -608.659       3.760    -344.462
  C     -606.412       3.649    -343.443
  O     -606.335       2.327    -343.991
  C     -605.130       4.452    -343.773
  N     -604.693       5.266    -342.642
  C     -603.518       4.871    -342.011
  O     -602.855       3.891    -342.357
  N     -603.159       5.600    -340.904
  C     -603.915       6.572    -340.314
  O     -603.673       7.021    -339.199
  C     -605.107       6.995    -341.055
  C     -605.447       6.330    -342.168
  O     -609.972       8.097    -346.112
  O     -608.563       9.362    -344.390
  H     -609.389       9.879    -344.379
  H     -607.075       1.830    -343.601
  H     -602.324       5.285    -340.418
  H     -605.694       7.807    -340.658
  H     -606.340       6.598    -342.715
  H     -604.311       3.769    -344.049
  H     -606.601       3.555    -342.370
  H     -607.726       5.337    -343.505
  H     -606.657       4.108    -346.110
  H     -606.650       6.586    -346.750
  H     -608.254       5.818    -346.657
  P     -610.061       4.164    -343.790
  C     -611.574       4.733    -345.788
  O     -611.243       3.764    -344.798
  O     -610.136       5.561    -343.267
  O     -610.239       3.108    -342.600
  H     -610.461       3.588    -341.771
  H     -612.370       4.361    -346.399
  H     -610.717       4.927    -346.398
  H     -611.885       5.639    -345.311

 6  7  8  9  10  11  12  13  14  15  16  27  31  32  33  34  35 0
 6-311+G(2d,p)
 ****
 36  37 0
 6-311+G(2d,p)
 ****
 1  2  3  4  5  17  18  19  20  21  22  23  24  25 0
 3-21G
 ****
 26  28  29  30  38  39  40  41  42  43  44  45 0
 3-21G
 ****


