%nproc=1
%NoSave
%Mem=1900MB
#P OB98/GEN NMR

erre ene a

0 1
  C     -391.785     189.195    -176.695
  O     -393.156     189.370    -177.015
  P     -393.744     190.855    -177.069
  C     -395.455     192.152    -175.594
  O     -394.452     191.154    -175.657
  C     -396.382     191.905    -174.402
  O     -397.119     190.662    -174.609
  C     -395.660     191.790    -173.057
  O     -396.514     192.332    -172.047
  C     -395.550     190.284    -172.873
  O     -395.312     189.901    -171.524
  C     -396.900     189.847    -173.437
  N     -396.955     188.422    -173.751
  C     -397.316     187.552    -172.730
  O     -397.590     187.910    -171.581
  N     -397.295     186.215    -173.044
  C     -396.873     185.677    -174.219
  O     -396.763     184.466    -174.398
  C     -396.501     186.642    -175.270
  C     -396.560     187.948    -174.996
  O     -394.970     190.734    -178.086
  O     -392.760     191.908    -177.495
  H     -395.097     188.949    -171.528
  H     -394.712     191.060    -178.968
  H     -397.565     185.568    -172.319
  H     -396.185     186.247    -176.227
  H     -396.276     188.683    -175.738
  H     -397.702     190.089    -172.734
  H     -394.719     189.897    -173.481
  H     -394.687     192.287    -173.038
  H     -397.126     192.716    -174.368
  H     -396.041     192.127    -176.518
  H     -394.988     193.144    -175.526
  P     -395.889     192.602    -170.588
  C     -396.090     191.413    -168.266
  O     -396.550     191.532    -169.598
  O     -396.605     193.982    -170.204
  O     -394.391     192.687    -170.582
  H     -397.554     193.992    -170.438
  H     -395.779     192.387    -167.862
  H     -395.249     190.725    -168.238
  H     -396.899     191.016    -167.651
  H     -391.548     188.152    -176.700
  H     -391.591     189.601    -175.724
  H     -391.182     189.701    -177.420

 3  4  5  6  7  8  9  10  11  12  13  23  28  29  30  31  32 0
 6-311+G(2d,p)
 ****
 33  34 0
 6-311+G(2d,p)
 ****
 1  2  14  15  16  17  18  19  20  21  22  24  25  26 0
 3-21G
 ****
 27  35  36  37  38  39  40  41  42  43  44  45 0
 3-21G
 ****


