%nproc=1
%NoSave
%Mem=1900MB
#P OB98/GEN NMR

erre ene a

0 1
  C     -133.145    -180.723    -694.805
  O     -132.713    -179.596    -695.536
  H     -134.147    -180.522    -694.412
  H     -132.475    -180.912    -693.962
  H     -133.195    -181.609    -695.445
  P     -131.340    -179.693    -696.362
  C     -129.554    -178.224    -695.212
  O     -130.147    -179.518    -695.303
  C     -130.341    -177.360    -694.229
  O     -130.565    -178.085    -692.992
  C     -129.620    -176.084    -693.819
  O     -129.668    -175.107    -694.846
  C     -130.378    -175.717    -692.548
  O     -131.602    -175.038    -692.854
  C     -130.661    -177.110    -691.938
  N     -129.740    -177.418    -690.842
  C     -129.842    -176.615    -689.706
  O     -130.654    -175.699    -689.594
  N     -128.923    -176.873    -688.720
  C     -127.873    -177.733    -688.810
  O     -126.938    -177.749    -688.011
  C     -127.852    -178.592    -690.006
  C     -128.770    -178.397    -690.952
  O     -131.249    -178.824    -697.569
  O     -131.243    -181.245    -696.749
  H     -131.506    -181.359    -697.684
  H     -131.342    -174.189    -693.254
  H     -128.966    -176.267    -687.911
  H     -127.064    -179.345    -690.082
  H     -128.757    -178.999    -691.857
  H     -131.691    -177.155    -691.551
  H     -129.787    -175.066    -691.903
  H     -128.581    -176.307    -693.557
  H     -131.319    -177.134    -694.681
  H     -129.575    -177.756    -696.206
  H     -128.511    -178.330    -694.888
  P     -128.613    -173.892    -694.861
  C     -129.546    -171.647    -694.010
  O     -128.976    -172.909    -693.649
  O     -128.438    -173.227    -696.185
  O     -127.241    -174.565    -694.378
  H     -126.531    -174.327    -695.000
  H     -129.746    -171.080    -693.125
  H     -130.459    -171.808    -694.544
  H     -128.860    -171.110    -694.631

 6  7  8  9  10  11  12  13  14  15  16  27  31  32  33  34  35 0
 6-311+G(2d,p)
 ****
 36  37 0
 6-311+G(2d,p)
 ****
 1  2  3  4  5  17  18  19  20  21  22  23  24  25 0
 3-21G
 ****
 26  28  29  30  38  39  40  41  42  43  44  45 0
 3-21G
 ****


