%nproc=1
%NoSave
%Mem=1900MB
#P OB98/GEN NMR

erre ene a

0 1
  C      329.955     287.440     371.267
  O      328.962     286.650     371.895
  P      328.372     287.079     373.324
  C      329.077     286.967     375.793
  O      329.404     286.602     374.454
  C      330.142     286.467     376.759
  O      331.356     287.247     376.641
  C      329.752     286.568     378.227
  O      328.790     285.598     378.586
  C      331.112     286.414     378.901
  O      331.488     285.033     378.981
  C      332.033     287.168     377.917
  N      332.400     288.490     378.406
  C      333.591     288.563     379.141
  O      334.222     287.541     379.409
  N      334.026     289.797     379.553
  C      333.285     290.840     379.366
  N      333.798     292.043     379.739
  C      331.946     290.777     378.744
  C      331.583     289.583     378.271
  O      326.950     286.690     373.567
  O      328.537     288.670     373.345
  H      327.684     289.073     373.609
  H      330.935     284.634     379.682
  H      331.337     291.667     378.665
  H      330.624     289.451     377.775
  H      332.944     286.591     377.738
  H      331.114     286.813     379.922
  H      329.355     287.570     378.430
  H      330.380     285.426     376.499
  H      334.721     292.053     380.147
  H      328.111     286.523     376.047
  H      333.460     292.929     379.355
  H      328.979     288.055     375.857
  P      327.900     285.904     379.887
  C      328.509     287.080     382.114
  O      328.904     286.170     381.105
  O      327.245     284.485     380.233
  O      326.846     286.951     379.687
  H      326.338     284.612     380.566
  H      329.107     286.890     383.007
  H      327.448     286.963     382.365
  H      328.693     288.101     381.777
  H      330.222     286.998     370.330
  H      330.819     287.492     371.896
  H      329.574     288.426     371.101

 3  4  5  6  7  8  9  10  11  12  13  24  27  28  29  30  32 0
 6-311+G(2d,p)
 ****
 34  35 0
 6-311+G(2d,p)
 ****
 1  2  14  15  16  17  18  19  20  21  22  23  25  26 0
 3-21G
 ****
 31  33  36  37  38  39  40  41  42  43  44  45  46 0
 3-21G
 ****


