%nproc=1
%NoSave
%Mem=1900MB
#P OB98/GEN NMR

erre ene a

0 1
  C       27.449     -22.032     -45.970
  O       27.103     -22.273     -44.613
  P       27.305     -21.068     -43.569
  C       24.907     -20.125     -43.895
  O       25.840     -20.734     -43.008
  C       23.527     -20.755     -43.735
  O       23.560     -22.136     -44.148
  C       22.998     -20.766     -42.310
  O       22.416     -19.526     -41.944
  C       21.931     -21.844     -42.407
  O       20.742     -21.302     -43.011
  C       22.587     -22.859     -43.349
  N       21.861     -27.056     -40.522
  C       20.998     -26.142     -41.012
  N       21.271     -25.044     -41.748
  C       22.595     -24.913     -41.934
  C       23.596     -25.745     -41.462
  C       23.187     -26.872     -40.731
  N       24.066     -27.819     -40.258
  N       24.833     -25.285     -41.854
  C       24.586     -24.201     -42.558
  N       23.247     -23.940     -42.643
  O       27.631     -19.821     -44.518
  O       28.366     -21.290     -42.547
  H       20.345     -20.694     -42.359
  H       28.120     -19.140     -44.018
  H       19.949     -26.320     -40.792
  H       25.339     -23.583     -43.028
  H       21.868     -23.309     -44.043
  H       21.639     -22.243     -41.431
  H       23.773     -21.080     -41.600
  H       22.834     -20.221     -44.399
  H       25.248     -20.267     -44.924
  H       23.684     -28.684     -39.908
  H       25.024     -27.785     -40.586
  H       24.864     -19.052     -43.684
  P       22.119     -19.299     -40.382
  C       24.491     -18.338     -39.939
  O       23.095     -18.111     -39.934
  O       22.751     -20.600     -39.700
  O       20.674     -19.129     -40.054
  H       22.310     -20.788     -38.850
  H       25.003     -17.372     -39.918
  H       24.802     -18.876     -40.839
  H       24.777     -18.909     -39.052
  H       27.265     -22.914     -46.547
  H       28.486     -21.774     -46.033
  H       26.857     -21.226     -46.351

 3  4  5  6  7  8  9  10  11  12  22  25  29  30  31  32 0
 6-311+G(2d,p)
 ****
 33  36  37 0
 6-311+G(2d,p)
 ****
 1  2  13  14  15  16  17  18  19  20  21  23  24  26 0
 3-21G
 ****
 27  28  34  35  38  39  40  41  42  43  44  45  46  47  48 0
 3-21G
 ****


