%nproc=1
%NoSave
%Mem=1900MB
#P OB98/GEN NMR

erre ene a

0 1
  C     -122.122     431.152    1043.162
  O     -121.957     430.839    1044.533
  H     -122.214     430.221    1042.599
  H     -121.259     431.706    1042.795
  H     -123.035     431.747    1043.025
  P     -121.702     432.061    1045.536
  C     -119.226     432.504    1044.864
  O     -120.134     432.064    1045.869
  C     -117.975     433.075    1045.519
  O     -118.211     434.444    1045.912
  C     -117.558     432.364    1046.800
  O     -116.877     431.145    1046.545
  C     -116.670     433.407    1047.444
  O     -115.322     433.341    1046.933
  C     -117.348     434.730    1047.037
  N     -118.081     435.321    1048.151
  C     -117.311     435.939    1049.129
  O     -116.079     436.009    1049.068
  N     -117.986     436.464    1050.193
  C     -119.326     436.380    1050.406
  O     -119.870     436.814    1051.415
  C     -120.102     435.691    1049.355
  C     -119.459     435.202    1048.288
  O     -122.384     431.568    1046.898
  O     -122.246     433.371    1045.079
  H     -123.218     432.056    1047.040
  H     -115.405     433.309    1045.961
  H     -117.435     436.920    1050.907
  H     -121.177     435.601    1049.494
  H     -120.000     434.680    1047.512
  H     -116.602     435.456    1046.693
  H     -116.611     433.271    1048.521
  H     -118.435     432.194    1047.443
  H     -117.155     433.059    1044.788
  H     -119.698     433.285    1044.259
  H     -118.975     431.661    1044.213
  P     -117.423     429.814    1047.271
  C     -115.550     430.129    1049.098
  O     -116.213     429.278    1048.175
  O     -117.489     428.812    1046.025
  O     -118.719     430.024    1047.967
  H     -116.834     429.050    1045.336
  H     -114.778     429.581    1049.597
  H     -116.254     430.491    1049.818
  H     -115.118     430.956    1048.574

 6  7  8  9  10  11  12  13  14  15  16  27  31  32  33  34  35 0
 6-311+G(2d,p)
 ****
 36  37 0
 6-311+G(2d,p)
 ****
 1  2  3  4  5  17  18  19  20  21  22  23  24  25 0
 3-21G
 ****
 26  28  29  30  38  39  40  41  42  43  44  45 0
 3-21G
 ****


