%nproc=1
%NoSave
%Mem=1900MB
#P OB98/GEN NMR

erre ene a

0 1
  C     -274.681     230.791     -67.296
  O     -275.437     230.499     -68.459
  P     -274.711     230.692     -69.889
  C     -275.715     228.555     -71.049
  O     -274.580     229.222     -70.514
  C     -276.173     227.442     -70.091
  O     -276.958     228.002     -69.028
  C     -277.052     226.375     -70.735
  O     -276.298     225.467     -71.511
  C     -277.726     225.770     -69.513
  O     -276.835     224.830     -68.873
  C     -277.928     227.007     -68.619
  N     -279.288     227.526     -68.648
  C     -280.262     226.780     -67.995
  O     -280.021     225.730     -67.417
  N     -281.543     227.280     -68.058
  C     -281.940     228.393     -68.738
  O     -283.107     228.769     -68.808
  C     -280.877     229.135     -69.441
  C     -279.618     228.672     -69.362
  O     -273.231     231.064     -69.414
  O     -275.380     231.707     -70.751
  H     -273.018     230.686     -68.533
  H     -276.040     225.346     -68.610
  H     -282.260     226.764     -67.571
  H     -281.146     230.008     -70.005
  H     -278.826     229.193     -69.878
  H     -277.681     226.768     -67.564
  H     -278.648     225.236     -69.752
  H     -277.814     226.851     -71.377
  H     -275.281     226.981     -69.644
  H     -275.438     228.113     -72.011
  H     -276.528     229.281     -71.201
  P     -276.805     225.188     -73.012
  C     -274.511     224.420     -74.016
  O     -275.527     225.409     -73.962
  O     -277.712     226.485     -73.269
  O     -277.526     223.892     -73.176
  H     -277.305     227.305     -72.931
  H     -273.940     224.555     -74.938
  H     -274.913     223.416     -73.994
  H     -273.825     224.557     -73.147
  H     -275.282     230.620     -66.428
  H     -274.371     231.815     -67.320
  H     -273.819     230.158     -67.263

 3  4  5  6  7  8  9  10  11  12  13  24  28  29  30  31  32 0
 6-311+G(2d,p)
 ****
 33  34 0
 6-311+G(2d,p)
 ****
 1  2  14  15  16  17  18  19  20  21  22  23  25  26  27 0
 3-21G
 ****
 35  36  37  38  39  40  41  42  43  44  45 0
 3-21G
 ****


