%nproc=1
%NoSave
%Mem=1900MB
#P OB98/GEN NMR

erre ene a

0 1
  C      475.560    -306.736      59.090
  O      476.665    -307.072      58.272
  P      476.492    -308.154      57.101
  C      477.483    -306.889      55.092
  O      477.677    -307.930      56.048
  C      478.744    -306.038      54.967
  O      478.923    -305.228      56.155
  C      480.031    -306.840      54.822
  O      480.159    -307.354      53.507
  C      481.074    -305.809      55.213
  O      481.374    -304.943      54.102
  C      480.343    -305.017      56.317
  N      483.153    -303.679      60.358
  C      483.069    -303.166      59.109
  N      482.321    -303.609      58.072
  C      481.634    -304.703      58.424
  C      481.645    -305.363      59.643
  C      482.443    -304.786      60.656
  N      482.486    -305.260      61.956
  N      480.829    -306.473      59.605
  C      480.339    -306.490      58.378
  N      480.751    -305.412      57.649
  O      475.121    -308.230      56.506
  O      476.887    -309.536      57.801
  H      480.530    -304.529      53.823
  H      476.122    -310.145      57.769
  H      483.677    -302.279      58.924
  H      479.684    -307.255      57.982
  H      480.514    -303.944      56.225
  H      482.019    -306.260      55.538
  H      480.046    -307.661      55.556
  H      478.613    -305.353      54.113
  H      476.644    -306.271      55.420
  H      482.967    -304.691      62.625
  H      481.743    -305.884      62.263
  H      477.226    -307.337      54.120
  P      480.159    -308.932      53.266
  C      479.480    -308.828      50.788
  O      480.496    -309.173      51.720
  O      478.954    -309.667      53.771
  O      481.489    -309.433      54.001
  H      481.349    -310.333      54.353
  H      478.717    -309.609      50.773
  H      479.927    -308.739      49.794
  H      479.014    -307.868      51.054
  H      475.859    -306.004      59.811
  H      475.211    -307.612      59.595
  H      474.774    -306.338      58.482

 3  4  5  6  7  8  9  10  11  12  22  25  29  30  31  32 0
 6-311+G(2d,p)
 ****
 33  36  37 0
 6-311+G(2d,p)
 ****
 1  2  13  14  15  16  17  18  19  20  21  23  24  26 0
 3-21G
 ****
 27  28  34  35  38  39  40  41  42  43  44  45  46  47  48 0
 3-21G
 ****


