%nproc=1
%NoSave
%Mem=1900MB
#P OB98/GEN NMR

erre ene a

0 1
  C      161.233     167.390     239.624
  O      161.028     168.036     238.383
  P      162.206     168.913     237.738
  C      160.690     170.944     237.232
  O      161.542     169.928     236.688
  C      159.923     171.647     236.120
  O      160.830     172.310     235.213
  C      159.096     170.701     235.252
  O      157.918     170.299     235.926
  C      158.858     171.560     234.012
  O      157.774     172.475     234.226
  C      160.194     172.328     233.902
  N      162.536     173.214     229.468
  C      161.576     173.896     230.130
  N      160.975     173.571     231.295
  C      161.442     172.398     231.753
  C      162.395     171.571     231.170
  C      162.975     172.027     229.975
  N      163.997     171.374     229.314
  N      162.580     170.431     231.940
  C      161.757     170.570     232.952
  N      161.093     171.772     232.920
  O      163.373     168.140     237.227
  O      162.656     169.880     238.936
  H      157.895     172.879     235.107
  H      163.600     169.724     239.146
  H      161.271     174.829     229.675
  H      161.609     169.840     233.738
  H      160.039     173.383     233.653
  H      158.626     170.968     233.131
  H      159.692     169.825     234.973
  H      159.285     172.413     236.579
  H      161.336     171.668     237.753
  H      164.440     171.869     228.558
  H      164.526     170.685     229.835
  H      160.003     170.490     237.948
  P      157.729     168.773     236.370
  C      155.730     168.587     234.762
  O      156.188     168.393     236.086
  O      158.221     168.432     237.736
  O      158.512     167.954     235.233
  H      158.884     167.142     235.633
  H      155.532     169.653     234.603
  H      154.812     168.032     234.620
  H      156.472     168.246     234.032
  H      160.348     166.855     239.898
  H      161.455     168.120     240.374
  H      162.051     166.706     239.539

 3  4  5  6  7  8  9  10  11  12  22  25  29  30  31  32 0
 6-311+G(2d,p)
 ****
 33  36  37 0
 6-311+G(2d,p)
 ****
 1  2  13  14  15  16  17  18  19  20  21  23  24  26 0
 3-21G
 ****
 27  28  34  35  38  39  40  41  42  43  44  45  46  47  48 0
 3-21G
 ****


