%nproc=1
%NoSave
%Mem=1900MB
#P OB98/GEN NMR

erre ene a

0 1
  C     -627.351     643.675     -56.571
  O     -627.381     642.778     -55.473
  P     -626.950     641.243     -55.606
  C     -626.222     641.142     -53.107
  O     -627.027     640.579     -54.135
  C     -626.168     640.276     -51.842
  O     -625.845     638.914     -52.213
  C     -625.035     640.759     -50.919
  O     -625.266     641.834     -50.029
  C     -624.497     639.487     -50.280
  O     -625.021     639.273     -48.962
  C     -624.950     638.372     -51.228
  N     -620.325     636.344     -50.784
  C     -621.222     636.667     -49.793
  N     -620.762     636.620     -48.535
  N     -622.464     637.026     -50.032
  C     -622.752     637.123     -51.358
  C     -621.944     636.829     -52.426
  C     -620.591     636.386     -52.144
  O     -619.732     636.171     -53.003
  N     -622.548     637.113     -53.627
  C     -623.698     637.637     -53.283
  N     -623.854     637.707     -51.917
  O     -625.774     640.937     -56.474
  O     -628.259     640.614     -56.327
  H     -624.746     640.017     -48.399
  H     -627.953     639.895     -56.911
  H     -619.363     636.152     -50.549
  H     -624.457     638.013     -53.976
  H     -625.500     637.607     -50.681
  H     -623.415     639.556     -50.160
  H     -619.786     636.488     -48.321
  H     -624.231     641.101     -51.572
  H     -621.345     637.006     -47.795
  H     -627.140     640.230     -51.348
  H     -626.634     642.146     -52.872
  H     -625.204     641.296     -53.489
  P     -624.128     642.772     -49.386
  C     -625.767     644.686     -49.803
  O     -624.831     644.141     -48.893
  O     -623.236     643.234     -50.621
  O     -623.276     642.106     -48.347
  H     -622.348     643.511     -50.307
  H     -625.939     645.745     -49.542
  H     -626.709     644.140     -49.744
  H     -625.404     644.636     -50.842
  H     -627.679     644.642     -56.251
  H     -627.999     643.316     -57.343
  H     -626.352     643.744     -56.948

 3  4  5  6  7  8  9  10  11  12  23  26  30  31 0
 6-311+G(2d,p)
 ****
 33  35  36  37  38 0
 6-311+G(2d,p)
 ****
 1  2  13  14  15  16  17  18  19  20  21  22  24  25 0
 3-21G
 ****
 27  28  29  32  34  39  40  41  42  43  44  45  46  47  48  49 0
 3-21G
 ****


