%nproc=1
%NoSave
%Mem=1900MB
#P OB98/GEN NMR

erre ene a

0 1
  C      -89.173    -631.430     252.839
  O      -88.870    -630.086     253.159
  H      -90.259    -631.531     252.745
  H      -88.819    -632.097     253.630
  H      -88.711    -631.699     251.883
  P      -87.322    -629.726     253.366
  C      -88.209    -627.453     254.246
  O      -87.330    -628.551     254.460
  C      -88.386    -626.649     255.532
  O      -89.248    -627.347     256.443
  C      -87.090    -626.381     256.278
  O      -86.422    -625.257     255.738
  C      -87.621    -626.086     257.672
  O      -88.083    -624.719     257.741
  C      -88.817    -627.045     257.798
  N      -90.079    -630.043     261.775
  C      -90.415    -628.768     261.470
  N      -90.001    -628.013     260.425
  C      -89.154    -628.715     259.648
  C      -88.715    -630.013     259.837
  C      -89.221    -630.689     260.958
  N      -88.874    -631.984     261.274
  N      -87.848    -630.390     258.832
  C      -87.806    -629.352     258.015
  N      -88.555    -628.298     258.490
  O      -86.542    -629.463     252.122
  O      -86.825    -630.989     254.224
  H      -87.286    -624.152     257.675
  H      -87.498    -631.237     254.881
  H      -91.112    -628.281     262.152
  H      -87.279    -629.322     257.075
  H      -89.663    -626.578     258.305
  H      -86.867    -626.205     258.450
  H      -86.445    -627.271     256.319
  H      -88.887    -625.702     255.263
  H      -89.180    -627.821     253.899
  H      -89.123    -632.324     262.188
  H      -88.140    -632.418     260.735
  H      -87.777    -626.833     253.452
  P      -84.851    -625.303     255.408
  C      -84.703    -622.744     255.582
  O      -84.241    -623.982     256.090
  O      -84.525    -625.497     253.962
  O      -84.292    -626.473     256.331
  H      -83.411    -626.758     256.016
  H      -84.230    -621.943     256.110
  H      -85.763    -622.679     255.711
  H      -84.465    -622.675     254.541

 6  7  8  9  10  11  12  13  14  15  25  28  32  33  34  35 0
 6-311+G(2d,p)
 ****
 36  39  40 0
 6-311+G(2d,p)
 ****
 1  2  3  4  5  16  17  18  19  20  21  22  23  24 0
 3-21G
 ****
 26  27  29  30  31  37  38  41  42  43  44  45  46  47 0
 3-21G
 ****
 48 0
 3-21G
 ****


