%nproc=1
%NoSave
%Mem=1900MB
#P OB98/GEN NMR

erre ene a

0 1
  C       80.858     189.020    -107.273
  O       82.121     189.656    -107.268
  H       80.096     189.758    -107.540
  H       80.623     188.621    -106.282
  H       80.840     188.215    -108.012
  P       83.403     188.805    -106.827
  C       84.757     186.902    -107.944
  O       83.506     187.577    -107.853
  C       84.550     185.430    -108.296
  O       83.861     184.752    -107.228
  C       83.704     185.201    -109.546
  O       84.454     185.477    -110.711
  C       83.309     183.748    -109.350
  O       84.385     182.867    -109.711
  C       83.057     183.705    -107.823
  N       81.652     183.859    -107.458
  C       80.775     182.899    -107.974
  O       81.196     181.999    -108.701
  N       79.440     183.000    -107.663
  C       79.023     183.940    -106.875
  N       77.692     183.980    -106.603
  C       79.922     184.950    -106.284
  C       81.207     184.859    -106.622
  O       83.470     188.410    -105.383
  O       84.643     189.728    -107.244
  H       84.076     181.962    -109.504
  H       84.930     190.275    -106.490
  H       79.533     185.714    -105.623
  H       81.934     185.563    -106.229
  H       83.415     182.756    -107.403
  H       82.449     183.468    -109.958
  H       82.798     185.814    -109.506
  H       85.538     184.965    -108.401
  H       77.118     183.253    -107.018
  H       85.242     186.990    -106.965
  H       77.285     184.561    -105.884
  H       85.401     187.381    -108.692
  P       83.746     185.922    -112.080
  C       82.169     187.841    -112.747
  O       82.711     187.085    -111.676
  O       83.161     184.811    -112.882
  O       84.892     186.731    -112.850
  H       85.543     186.105    -113.256
  H       81.499     188.579    -112.359
  H       81.638     187.190    -113.410
  H       82.962     188.323    -113.280

 6  7  8  9  10  11  12  13  14  15  16  26  30  31  32  33  35 0
 6-311+G(2d,p)
 ****
 37  38 0
 6-311+G(2d,p)
 ****
 1  2  3  4  5  17  18  19  20  21  22  23  24  25 0
 3-21G
 ****
 27  28  29  34  36  39  40  41  42  43  44  45  46 0
 3-21G
 ****


