%nproc=1
%NoSave
%Mem=1900MB
#P OB98/GEN NMR

erre ene a

0 1
  C     -152.563     428.038     261.559
  O     -151.702     428.926     260.868
  H     -152.008     427.125     261.786
  H     -153.423     427.783     260.932
  H     -152.904     428.497     262.490
  P     -152.341     430.317     260.386
  C     -152.746     429.331     258.033
  O     -153.343     429.902     259.202
  C     -153.817     428.679     257.151
  O     -154.652     429.733     256.584
  C     -153.241     427.871     255.985
  O     -154.073     426.732     255.745
  C     -153.365     428.826     254.811
  O     -153.386     428.142     253.553
  C     -154.654     429.565     255.151
  N     -157.894     433.115     253.471
  C     -158.071     432.026     254.258
  N     -157.137     431.143     254.675
  C     -155.912     431.502     254.253
  C     -155.578     432.584     253.459
  C     -156.641     433.413     253.055
  N     -156.482     434.504     252.235
  N     -154.219     432.596     253.206
  C     -153.737     431.544     253.846
  N     -154.732     430.850     254.484
  O     -151.367     431.396     260.047
  O     -153.349     430.653     261.584
  H     -152.619     427.530     253.514
  H     -153.876     429.875     261.837
  H     -159.088     431.834     254.586
  H     -152.693     431.237     253.882
  H     -155.554     428.998     254.873
  H     -152.516     429.515     254.794
  H     -152.210     427.547     256.149
  H     -154.468     428.067     257.784
  H     -152.001     428.584     258.320
  H     -157.295     435.042     251.987
  H     -155.558     434.754     251.908
  H     -152.240     430.140     257.481
  P     -153.426     425.264     255.858
  C     -152.250     425.366     253.564
  O     -152.092     425.220     254.974
  O     -154.361     424.126     255.639
  O     -152.845     425.247     257.354
  H     -153.036     424.373     257.763
  H     -151.291     425.319     253.091
  H     -152.707     426.310     253.352
  H     -152.870     424.578     253.191

 6  7  8  9  10  11  12  13  14  15  25  28  32  33  34  35 0
 6-311+G(2d,p)
 ****
 36  39  40 0
 6-311+G(2d,p)
 ****
 1  2  3  4  5  16  17  18  19  20  21  22  23  24 0
 3-21G
 ****
 26  27  29  30  31  37  38  41  42  43  44  45  46  47 0
 3-21G
 ****
 48 0
 3-21G
 ****


