%nproc=1
%NoSave
%Mem=1900MB
#P OB98/GEN NMR

erre ene a

0 1
  C      682.011    -769.554    -539.009
  O      680.726    -769.902    -538.513
  H      681.889    -768.728    -539.714
  H      682.456    -770.397    -539.533
  H      682.659    -769.236    -538.190
  P      680.673    -771.136    -537.485
  C      682.260    -771.119    -535.449
  O      681.139    -770.505    -536.079
  C      682.828    -770.204    -534.367
  O      683.381    -769.011    -534.989
  C      681.770    -769.748    -533.349
  O      682.360    -769.701    -532.050
  C      681.428    -768.324    -533.797
  O      680.938    -767.533    -532.737
  C      682.765    -767.870    -534.380
  N      682.775    -762.797    -535.084
  C      683.128    -763.583    -534.022
  N      683.119    -764.917    -533.932
  C      682.719    -765.473    -535.082
  C      682.327    -764.832    -536.248
  C      682.350    -763.403    -536.208
  N      681.974    -762.609    -537.271
  N      681.955    -765.742    -537.215
  C      682.122    -766.915    -536.647
  N      682.584    -766.818    -535.366
  O      681.393    -772.366    -537.909
  O      679.086    -771.307    -537.272
  H      681.657    -767.388    -532.082
  H      678.656    -770.448    -537.158
  H      683.460    -763.042    -533.135
  H      681.936    -767.866    -537.135
  H      683.438    -767.466    -533.613
  H      680.664    -768.365    -534.577
  H      680.889    -770.395    -533.342
  H      683.661    -770.716    -533.865
  H      683.050    -771.316    -536.198
  H      682.039    -761.615    -537.177
  H      681.688    -763.047    -538.150
  H      681.934    -772.074    -535.028
  P      682.150    -770.969    -531.071
  C      683.379    -773.171    -530.515
  O      683.362    -771.993    -531.322
  O      680.800    -771.580    -531.071
  O      682.518    -770.359    -529.643
  H      681.913    -770.744    -528.973
  H      684.228    -773.769    -530.774
  H      682.483    -773.732    -530.683
  H      683.439    -772.895    -529.483

 6  7  8  9  10  11  12  13  14  15  25  28  32  33  34  35 0
 6-311+G(2d,p)
 ****
 36  39  40 0
 6-311+G(2d,p)
 ****
 1  2  3  4  5  16  17  18  19  20  21  22  23  24 0
 3-21G
 ****
 26  27  29  30  31  37  38  41  42  43  44  45  46  47 0
 3-21G
 ****
 48 0
 3-21G
 ****


