%nproc=1
%NoSave
%Mem=1900MB
#P OB98/GEN NMR

erre ene a

0 1
  C      -61.362     346.102     -85.956
  O      -61.669     344.888     -85.289
  P      -60.649     343.654     -85.328
  C      -62.542     342.245     -86.358
  O      -61.552     342.321     -85.343
  C      -63.386     340.976     -86.195
  O      -62.599     339.838     -86.629
  C      -63.822     340.718     -84.761
  O      -65.133     340.146     -84.772
  C      -62.846     339.667     -84.261
  O      -63.424     338.885     -83.196
  C      -62.547     338.891     -85.542
  N      -59.735     334.939     -83.865
  C      -61.042     335.232     -83.721
  N      -61.718     336.309     -84.169
  C      -60.906     337.117     -84.885
  C      -59.553     336.940     -85.123
  C      -58.956     335.792     -84.573
  N      -57.621     335.485     -84.734
  N      -59.048     337.990     -85.875
  C      -60.087     338.763     -86.102
  N      -61.239     338.272     -85.534
  O      -59.589     343.672     -84.284
  O      -60.032     343.686     -86.805
  H      -62.881     338.073     -83.103
  H      -59.088     343.448     -86.786
  H      -61.628     334.507     -83.162
  H      -60.063     339.688     -86.657
  H      -63.296     338.114     -85.735
  H      -61.950     340.156     -83.864
  H      -63.814     341.619     -84.140
  H      -64.253     341.052     -86.864
  H      -62.041     342.224     -87.332
  H      -57.311     334.582     -84.410
  H      -57.085     336.025     -85.405
  H      -63.176     343.140     -86.316
  P      -66.207     340.844     -83.794
  C      -66.321     338.734     -82.258
  O      -67.003     339.613     -83.122
  O      -67.027     341.875     -84.498
  O      -65.259     341.408     -82.634
  H      -64.423     340.905     -82.579
  H      -67.012     337.952     -81.934
  H      -65.971     339.275     -81.370
  H      -65.468     338.273     -82.766
  H      -62.161     346.799     -85.814
  H      -61.236     345.912     -87.001
  H      -60.457     346.510     -85.556

 3  4  5  6  7  8  9  10  11  12  22  25  29  30  31  32 0
 6-311+G(2d,p)
 ****
 33  36  37 0
 6-311+G(2d,p)
 ****
 1  2  13  14  15  16  17  18  19  20  21  23  24  26 0
 3-21G
 ****
 27  28  34  35  38  39  40  41  42  43  44  45  46  47  48 0
 3-21G
 ****


