%nproc=1
%NoSave
%Mem=1900MB
#P OB98/GEN NMR

erre ene a

0 1
  C     -319.872    -118.063     283.411
  O     -320.887    -118.662     284.189
  P     -320.777    -118.700     285.792
  C     -320.632    -121.275     285.738
  O     -319.996    -120.061     286.134
  C     -319.616    -122.244     285.137
  O     -318.759    -121.564     284.193
  C     -318.681    -122.886     286.155
  O     -319.350    -123.919     286.865
  C     -317.551    -123.358     285.261
  O     -317.861    -124.617     284.648
  C     -317.483    -122.233     284.199
  N     -316.382    -121.307     284.445
  C     -315.097    -121.803     284.203
  O     -314.936    -122.972     283.846
  N     -314.017    -120.976     284.427
  C     -314.209    -119.775     284.869
  N     -313.107    -119.013     285.082
  C     -315.546    -119.222     285.159
  C     -316.579    -120.035     284.932
  O     -322.066    -118.493     286.520
  O     -319.684    -117.570     286.107
  H     -317.770    -125.294     285.358
  H     -320.058    -116.664     285.992
  H     -315.658    -118.216     285.542
  H     -317.594    -119.712     285.124
  H     -317.354    -122.664     283.198
  H     -316.613    -123.498     285.815
  H     -318.309    -122.124     286.849
  H     -320.171    -123.022     284.592
  H     -312.206    -119.441     284.891
  H     -321.397    -121.039     284.993
  H     -313.137    -118.077     285.455
  H     -321.129    -121.725     286.606
  P     -319.798    -123.683     288.378
  C     -317.910    -125.124     289.335
  O     -318.510    -123.839     289.308
  O     -321.000    -124.461     288.820
  O     -320.102    -122.109     288.442
  H     -320.934    -121.965     288.930
  H     -316.887    -125.026     289.709
  H     -317.875    -125.567     288.338
  H     -318.468    -125.772     290.008
  H     -320.126    -118.138     282.374
  H     -318.944    -118.565     283.588
  H     -319.777    -117.032     283.681

 3  4  5  6  7  8  9  10  11  12  13  23  27  28  29  30  32 0
 6-311+G(2d,p)
 ****
 34  35 0
 6-311+G(2d,p)
 ****
 1  2  14  15  16  17  18  19  20  21  22  24  25  26 0
 3-21G
 ****
 31  33  36  37  38  39  40  41  42  43  44  45  46 0
 3-21G
 ****


