%nproc=1
%NoSave
%Mem=1900MB
#P OB98/GEN NMR

erre ene a

0 1
  C      186.306     397.296     239.801
  O      187.339     396.613     240.488
  H      186.332     397.012     238.748
  H      186.446     398.379     239.885
  H      185.328     397.021     240.212
  P      187.518     396.976     242.044
  C      189.657     398.395     241.565
  O      189.098     397.241     242.178
  C      191.103     398.568     242.013
  O      191.738     399.635     241.279
  C      191.261     398.936     243.486
  O      191.118     397.819     244.351
  C      192.682     399.468     243.481
  O      193.616     398.372     243.417
  C      192.691     400.282     242.169
  N      192.338     401.690     242.359
  C      193.386     402.567     242.685
  O      194.542     402.141     242.809
  N      193.098     403.896     242.900
  C      191.873     404.323     242.787
  N      191.645     405.640     243.026
  C      190.749     403.442     242.429
  C      191.046     402.159     242.230
  O      187.344     395.562     242.780
  O      186.644     398.064     242.576
  H      193.363     397.833     242.651
  H      187.564     395.656     243.740
  H      189.747     403.837     242.359
  H      190.265     401.450     241.972
  H      193.681     400.232     241.679
  H      192.926     400.044     244.374
  H      190.582     399.747     243.773
  H      191.643     397.635     241.772
  H      192.436     406.208     243.324
  H      189.062     399.273     241.855
  H      190.720     406.025     243.136
  H      189.625     398.288     240.475
  P      190.240     398.028     245.686
  C      191.949     399.538     246.938
  O      191.274     398.286     246.886
  O      189.692     396.548     245.989
  O      189.126     399.022     245.565
  H      188.779     396.565     246.314
  H      192.599     399.558     247.788
  H      191.231     400.327     247.019
  H      192.525     399.670     246.046

 6  7  8  9  10  11  12  13  14  15  16  26  30  31  32  33  35 0
 6-311+G(2d,p)
 ****
 37  38 0
 6-311+G(2d,p)
 ****
 1  2  3  4  5  17  18  19  20  21  22  23  24  25 0
 3-21G
 ****
 27  28  29  34  36  39  40  41  42  43  44  45  46 0
 3-21G
 ****


