%nproc=1
%NoSave
%Mem=1900MB
#P OB98/GEN NMR

erre ene a

0 1
  C       33.728    -279.809     -45.509
  O       34.263    -279.329     -44.292
  H       34.513    -280.279     -46.107
  H       32.962    -280.558     -45.286
  H       33.270    -278.991     -46.071
  P       35.406    -278.206     -44.395
  C       37.822    -278.174     -45.354
  O       36.711    -278.963     -44.944
  C       39.076    -279.040     -45.391
  O       39.433    -279.463     -44.055
  C       38.932    -280.322     -46.206
  O       39.088    -280.095     -47.595
  C       40.083    -281.139     -45.646
  O       41.324    -280.680     -46.210
  C       40.015    -280.792     -44.152
  N       39.957    -283.886     -40.077
  C       40.925    -283.107     -40.604
  N       40.863    -282.316     -41.694
  C       39.645    -282.378     -42.258
  C       38.563    -283.135     -41.839
  C       38.749    -283.915     -40.686
  N       37.768    -284.724     -40.153
  N       37.490    -282.968     -42.694
  C       37.913    -282.100     -43.592
  N       39.210    -281.720     -43.378
  O       35.776    -277.905     -42.867
  O       35.037    -276.973     -45.149
  H       41.199    -280.661     -47.178
  H       36.210    -277.033     -42.794
  H       41.877    -283.121     -40.079
  H       37.318    -281.716     -44.412
  H       41.006    -280.750     -43.684
  H       40.001    -282.204     -45.871
  H       37.986    -280.835     -45.984
  H       39.903    -278.426     -45.777
  H       37.966    -277.360     -44.639
  H       38.059    -285.377     -39.441
  H       36.921    -284.864     -40.684
  H       37.620    -277.753     -46.342
  P       38.219    -281.004     -48.593
  C       38.037    -283.587     -48.853
  O       38.861    -282.470     -48.521
  O       38.653    -280.474     -50.037
  O       36.743    -280.930     -48.379
  H       37.943    -280.625     -50.690
  H       38.604    -284.489     -48.758
  H       37.691    -283.488     -49.861
  H       37.198    -283.621     -48.189

 6  7  8  9  10  11  12  13  14  15  25  28  32  33  34  35 0
 6-311+G(2d,p)
 ****
 36  39  40 0
 6-311+G(2d,p)
 ****
 1  2  3  4  5  16  17  18  19  20  21  22  23  24 0
 3-21G
 ****
 26  27  29  30  31  37  38  41  42  43  44  45  46  47 0
 3-21G
 ****
 48 0
 3-21G
 ****


