%nproc=1
%NoSave
%Mem=1900MB
#P OB98/GEN NMR

erre ene a

0 1
  C      101.367     350.750     511.140
  O      100.303     350.930     510.200
  P      100.005     349.855     509.042
  C      101.278     351.201     507.260
  O      101.134     349.935     507.900
  C      102.271     351.173     506.089
  O      101.931     350.125     505.140
  C      102.359     352.478     505.288
  O      103.705     352.563     504.814
  C      101.401     352.214     504.140
  O      101.603     353.070     503.023
  C      101.704     350.746     503.860
  N      100.458     348.129     499.639
  C      101.655     348.489     500.148
  N      101.908     349.153     501.295
  C      100.770     349.406     501.963
  C       99.478     349.091     501.571
  C       99.340     348.428     500.339
  N       98.125     348.097     499.790
  N       98.560     349.540     502.500
  C       99.291     350.129     503.431
  N      100.629     350.068     503.154
  O       98.607     349.896     508.515
  O      100.283     348.442     509.738
  H      101.027     352.770     502.299
  H       99.557     347.828     509.518
  H      102.523     348.221     499.554
  H       98.901     350.627     504.307
  H      102.618     350.629     503.267
  H      100.372     352.357     504.487
  H      102.094     353.367     505.867
  H      103.253     350.916     506.498
  H      101.615     351.926     508.004
  H       98.120     347.708     498.860
  H       97.278     348.422     500.237
  H      100.295     351.521     506.899
  P      104.729     353.661     505.365
  C      104.682     355.499     503.590
  O      104.201     355.082     504.853
  O      106.164     353.386     505.072
  O      104.451     353.713     506.944
  H      105.215     354.117     507.396
  H      105.711     355.858     503.691
  H      104.058     356.322     503.223
  H      104.650     354.680     502.869
  H      101.387     351.577     511.818
  H      102.299     350.694     510.617
  H      101.210     349.844     511.687

 3  4  5  6  7  8  9  10  11  12  22  25  29  30  31  32 0
 6-311+G(2d,p)
 ****
 33  36  37 0
 6-311+G(2d,p)
 ****
 1  2  13  14  15  16  17  18  19  20  21  23  24  26 0
 3-21G
 ****
 27  28  34  35  38  39  40  41  42  43  44  45  46  47  48 0
 3-21G
 ****


