%nproc=1
%NoSave
%Mem=1900MB
#P OB98/GEN NMR

erre ene a

0 1
  C     1879.640    -138.602     476.649
  O     1878.392    -139.180     476.967
  H     1879.487    -137.580     476.282
  H     1880.138    -139.180     475.876
  H     1880.267    -138.558     477.550
  P     1878.383    -140.704     477.427
  C     1878.619    -143.015     476.215
  O     1878.708    -141.588     476.112
  C     1877.898    -143.567     474.994
  O     1878.557    -143.117     473.794
  C     1877.906    -145.085     474.938
  O     1876.924    -145.682     475.759
  C     1877.585    -145.307     473.443
  O     1876.173    -145.258     473.199
  C     1878.307    -144.113     472.777
  N     1879.538    -144.543     472.118
  C     1879.362    -145.206     470.897
  O     1878.266    -145.401     470.383
  N     1880.518    -145.643     470.290
  C     1881.787    -145.538     470.791
  O     1882.752    -145.997     470.233
  C     1881.897    -144.854     472.083
  C     1880.794    -144.407     472.692
  O     1876.841    -141.002     477.716
  O     1879.244    -141.012     478.610
  H     1876.695    -141.055     478.679
  H     1875.765    -145.892     473.825
  H     1880.409    -146.111     469.419
  H     1882.885    -144.747     472.527
  H     1880.849    -143.904     473.671
  H     1877.647    -143.649     472.032
  H     1877.939    -146.269     473.102
  H     1878.907    -145.482     475.132
  H     1876.860    -143.174     475.008
  H     1878.070    -143.277     477.121
  H     1879.636    -143.414     476.287
  P     1876.880    -147.292     475.791
  C     1876.707    -148.993     473.804
  O     1876.329    -147.749     474.372
  O     1875.653    -147.524     476.804
  O     1878.153    -147.914     476.256
  H     1875.000    -146.768     476.778
  H     1876.231    -149.110     472.853
  H     1876.406    -149.788     474.454
  H     1877.769    -149.019     473.677

 6  7  8  9  10  11  12  13  14  15  16  27  31  32  33  34  35 0
 6-311+G(2d,p)
 ****
 36  37 0
 6-311+G(2d,p)
 ****
 1  2  3  4  5  17  18  19  20  21  22  23  24  25 0
 3-21G
 ****
 26  28  29  30  38  39  40  41  42  43  44  45 0
 3-21G
 ****


