%nproc=1
%NoSave
%Mem=1900MB
#P OB98/GEN NMR

erre ene a

0 1
  C      -42.227    -452.874      22.009
  O      -41.205    -453.405      22.832
  H      -41.758    -452.349      21.172
  H      -42.837    -452.157      22.569
  H      -42.855    -453.674      21.610
  P      -41.633    -454.222      24.145
  C      -43.421    -453.789      25.974
  O      -42.656    -453.242      24.904
  C      -43.387    -452.853      27.179
  O      -43.431    -451.468      26.773
  C      -44.559    -453.008      28.143
  O      -44.493    -454.179      28.935
  C      -44.386    -451.738      28.964
  O      -43.293    -451.906      29.886
  C      -44.039    -450.716      27.861
  N      -45.214    -449.986      27.378
  C      -45.963    -449.303      28.345
  O      -45.642    -449.334      29.530
  N      -47.094    -448.616      27.950
  C      -47.453    -448.639      26.702
  N      -48.582    -447.954      26.365
  C      -46.702    -449.362      25.654
  C      -45.606    -450.004      26.060
  O      -40.509    -454.757      24.981
  O      -42.620    -455.361      23.603
  H      -42.495    -452.064      29.352
  H      -42.909    -455.906      24.379
  H      -47.061    -449.369      24.634
  H      -45.008    -450.561      25.349
  H      -43.291    -449.995      28.215
  H      -45.268    -451.486      29.550
  H      -45.516    -452.948      27.604
  H      -42.420    -453.009      27.686
  H      -49.075    -447.469      27.104
  H      -43.005    -454.770      26.221
  H      -48.978    -447.974      25.434
  H      -44.462    -453.911      25.656
  P      -45.821    -454.571      29.760
  C      -46.888    -453.640      31.958
  O      -45.726    -453.788      31.162
  O      -45.562    -456.100      30.157
  O      -47.110    -454.370      29.026
  H      -46.029    -456.698      29.537
  H      -46.644    -453.098      32.848
  H      -47.266    -454.606      32.221
  H      -47.632    -453.104      31.407

 6  7  8  9  10  11  12  13  14  15  16  26  30  31  32  33  35 0
 6-311+G(2d,p)
 ****
 37  38 0
 6-311+G(2d,p)
 ****
 1  2  3  4  5  17  18  19  20  21  22  23  24  25 0
 3-21G
 ****
 27  28  29  34  36  39  40  41  42  43  44  45  46 0
 3-21G
 ****


