%nproc=1
%NoSave
%Mem=1900MB
#P OB98/GEN NMR

erre ene a

0 1
  C     -608.083      72.381      58.837
  O     -607.366      71.186      59.064
  P     -606.661      70.352      57.897
  C     -608.464      68.496      57.664
  O     -607.801      69.595      57.050
  C     -609.626      67.951      56.818
  O     -610.711      68.900      56.817
  C     -609.182      67.789      55.357
  O     -608.487      66.634      54.949
  C     -610.425      68.128      54.535
  O     -611.123      66.958      54.100
  C     -611.285      68.942      55.506
  N     -613.575      72.165      52.326
  C     -613.882      70.848      52.599
  N     -614.798      70.275      51.784
  N     -613.335      70.158      53.564
  C     -612.370      70.843      54.231
  C     -611.979      72.154      54.057
  C     -612.630      72.912      53.014
  O     -612.324      74.058      52.684
  N     -610.921      72.488      54.860
  C     -610.634      71.362      55.502
  N     -611.461      70.328      55.115
  O     -605.424      69.587      58.269
  O     -606.207      71.526      56.892
  H     -611.950      67.248      53.658
  H     -605.366      71.262      56.483
  H     -613.978      72.622      51.515
  H     -609.826      71.240      56.208
  H     -612.287      68.504      55.587
  H     -610.147      68.675      53.622
  H     -615.137      70.729      50.949
  H     -608.483      68.614      55.150
  H     -614.924      69.267      51.850
  H     -610.033      67.030      57.259
  H     -608.825      68.830      58.639
  H     -607.747      67.691      57.848
  P     -607.474      66.525      53.711
  C     -609.292      65.577      52.182
  O     -608.319      66.591      52.352
  O     -606.978      64.994      53.747
  O     -606.302      67.447      53.771
  H     -606.120      64.918      53.280
  H     -609.582      65.532      51.131
  H     -610.175      65.806      52.787
  H     -608.903      64.600      52.479
  H     -608.460      72.753      59.767
  H     -608.899      72.187      58.173
  H     -607.433      73.109      58.399

 3  4  5  6  7  8  9  10  11  12  23  26  30  31 0
 6-311+G(2d,p)
 ****
 33  35  36  37  38 0
 6-311+G(2d,p)
 ****
 1  2  13  14  15  16  17  18  19  20  21  22  24  25 0
 3-21G
 ****
 27  28  29  32  34  39  40  41  42  43  44  45  46  47  48  49 0
 3-21G
 ****


