%nproc=1
%NoSave
%Mem=1900MB
#P OB98/GEN NMR

erre ene a

0 1
  C      248.322    -286.254     259.334
  O      248.346    -285.901     257.964
  H      247.973    -285.401     259.924
  H      247.620    -287.082     259.470
  H      249.312    -286.569     259.674
  P      249.514    -284.919     257.484
  C      251.062    -286.537     256.170
  O      250.846    -285.813     257.374
  C      252.546    -286.550     255.808
  O      253.260    -287.305     256.830
  C      252.866    -287.188     254.447
  O      253.916    -286.437     253.826
  C      253.391    -288.563     254.819
  O      254.258    -289.103     253.830
  C      254.082    -288.269     256.142
  N      257.517    -291.198     258.482
  C      257.575    -289.932     258.020
  N      256.592    -289.201     257.458
  C      255.439    -289.885     257.455
  C      255.217    -291.183     257.897
  C      256.332    -291.854     258.422
  N      256.297    -293.168     258.832
  N      253.904    -291.552     257.675
  C      253.344    -290.506     257.084
  N      254.237    -289.475     256.928
  O      249.773    -284.021     258.789
  O      249.205    -284.076     256.286
  H      254.996    -288.482     253.689
  H      249.170    -283.257     258.785
  H      258.546    -289.442     258.102
  H      252.330    -290.458     256.725
  H      255.089    -287.833     256.013
  H      252.552    -289.250     254.958
  H      252.004    -287.243     253.771
  H      252.923    -285.519     255.850
  H      250.504    -286.054     255.354
  H      257.176    -293.604     259.090
  H      255.457    -293.704     258.686
  H      250.691    -287.561     256.291
  P      253.681    -285.928     252.321
  C      252.206    -283.854     252.877
  O      252.285    -285.139     252.272
  O      253.372    -287.281     251.528
  O      254.847    -285.202     251.742
  H      253.702    -287.215     250.616
  H      251.216    -283.464     252.759
  H      252.907    -283.195     252.408
  H      252.435    -283.936     253.919

 6  7  8  9  10  11  12  13  14  15  25  28  32  33  34  35 0
 6-311+G(2d,p)
 ****
 36  39  40 0
 6-311+G(2d,p)
 ****
 1  2  3  4  5  16  17  18  19  20  21  22  23  24 0
 3-21G
 ****
 26  27  29  30  31  37  38  41  42  43  44  45  46  47 0
 3-21G
 ****
 48 0
 3-21G
 ****


