%nproc=1
%NoSave
%Mem=1900MB
#P OB98/GEN NMR

erre ene a

0 1
  C     -181.882      12.147     -25.519
  O     -181.935      11.393     -26.716
  P     -182.337       9.845     -26.671
  C     -179.976       9.153     -27.518
  O     -181.374       9.081     -27.699
  C     -179.249       9.281     -28.863
  O     -179.583       8.119     -29.661
  C     -179.655      10.492     -29.698
  O     -178.646      10.724     -30.684
  C     -180.917       9.996     -30.370
  O     -181.244      10.754     -31.532
  C     -180.597       8.500     -30.621
  N     -181.795       7.657     -30.461
  C     -182.694       7.629     -31.525
  O     -182.485       8.206     -32.590
  N     -183.877       6.984     -31.292
  C     -184.250       6.424     -30.105
  O     -185.406       6.133     -29.820
  C     -183.178       6.276     -29.109
  C     -182.022       6.914     -29.317
  O     -183.762       9.828     -27.400
  O     -182.405       9.252     -25.306
  H     -180.490      10.650     -32.159
  H     -184.479       9.849     -26.739
  H     -184.583       7.089     -32.010
  H     -183.387       5.706     -28.213
  H     -181.231       6.865     -28.574
  H     -180.204       8.340     -31.631
  H     -181.756      10.088     -29.669
  H     -179.833      11.400     -29.116
  H     -178.167       9.276     -28.693
  H     -179.636       8.264     -26.979
  H     -179.719      10.015     -26.891
  P     -177.497      11.789     -30.344
  C     -178.335      13.720     -31.814
  O     -177.349      12.722     -31.640
  O     -176.223      11.227     -29.809
  O     -178.209      12.763     -29.288
  H     -177.532      13.261     -28.793
  H     -177.893      14.562     -32.354
  H     -178.719      14.077     -30.855
  H     -179.159      13.312     -32.406
  H     -181.598      13.154     -25.744
  H     -181.163      11.713     -24.856
  H     -182.845      12.144     -25.053

 3  4  5  6  7  8  9  10  11  12  13  23  28  29  30  31  32 0
 6-311+G(2d,p)
 ****
 33  34 0
 6-311+G(2d,p)
 ****
 1  2  14  15  16  17  18  19  20  21  22  24  25  26  27 0
 3-21G
 ****
 35  36  37  38  39  40  41  42  43  44  45 0
 3-21G
 ****


