%nproc=1
%NoSave
%Mem=1900MB
#P OB98/GEN NMR

erre ene a

0 1
  C      198.343       1.810     248.276
  O      199.106       1.633     247.091
  H      198.678       2.725     248.767
  H      198.504       0.966     248.952
  H      197.284       1.899     248.033
  P      198.754       0.336     246.213
  C      201.066      -0.797     246.613
  O      199.661      -0.857     246.791
  C      201.694      -2.192     246.810
  O      201.046      -3.125     245.879
  C      203.207      -2.247     246.513
  O      203.772      -3.281     247.330
  C      203.217      -2.670     245.049
  O      204.508      -3.093     244.663
  C      202.102      -3.706     245.084
  N      203.014      -6.356     240.792
  C      203.692      -6.267     241.962
  N      203.381      -5.555     243.068
  C      202.223      -4.890     242.887
  C      201.415      -4.886     241.759
  C      201.860      -5.659     240.660
  N      201.169      -5.742     239.473
  N      200.310      -4.067     241.952
  C      200.447      -3.594     243.173
  N      201.587      -4.058     243.775
  O      199.416       0.662     244.790
  O      197.300       0.020     246.083
  H      204.539      -3.258     243.696
  H      198.745       1.051     244.192
  H      204.621      -6.855     242.017
  H      199.761      -2.927     243.670
  H      202.414      -4.635     245.576
  H      202.954      -1.833     244.403
  H      203.720      -1.303     246.715
  H      201.466      -2.544     247.821
  H      201.486      -0.099     247.353
  H      201.305      -0.435     245.597
  H      201.567      -6.302     238.738
  H      200.316      -5.210     239.361
  P      204.181      -2.963     248.850
  C      206.712      -2.537     248.353
  O      205.481      -2.022     248.848
  O      204.777      -4.364     249.346
  O      203.060      -2.518     249.745
  H      204.654      -4.445     250.304
  H      207.468      -1.783     248.424
  H      206.592      -2.826     247.330
  H      207.001      -3.388     248.933

 6  7  8  9  10  11  12  13  14  15  25  28  32  33  34  35 0
 6-311+G(2d,p)
 ****
 36  37  40 0
 6-311+G(2d,p)
 ****
 1  2  3  4  5  16  17  18  19  20  21  22  23  24 0
 3-21G
 ****
 26  27  29  30  31  38  39 41  42  43  44  45  46  47  48 0
 3-21G
 ****


