%nproc=1
%NoSave
%Mem=1900MB
#P OB98/GEN NMR

erre ene a

0 1
  C      239.862     -21.645      15.297
  O      240.671     -21.975      16.411
  H      240.272     -20.753      14.820
  H      238.842     -21.431      15.628
  H      239.859     -22.465      14.574
  P      240.348     -23.367      17.148
  C      238.438     -22.389      18.661
  O      238.815     -23.260      17.610
  C      237.443     -23.077      19.596
  O      238.099     -24.209      20.222
  C      236.915     -22.172      20.710
  O      235.539     -22.492      20.942
  C      237.748     -22.562      21.917
  O      237.088     -22.254      23.146
  C      237.986     -24.059      21.652
  N      239.178     -24.558      22.335
  C      239.176     -24.496      23.732
  O      238.212     -24.014      24.331
  N      240.281     -24.934      24.419
  C      241.325     -25.338      23.766
  N      242.394     -25.743      24.503
  C      241.392     -25.371      22.291
  C      240.294     -24.983      21.648
  O      241.171     -23.210      18.512
  O      240.696     -24.580      16.347
  H      237.710     -22.448      23.881
  H      241.109     -22.324      18.902
  H      242.293     -25.703      21.792
  H      240.253     -24.984      20.564
  H      237.126     -24.651      21.982
  H      238.699     -22.021      21.903
  H      237.010     -21.110      20.486
  H      236.624     -23.484      18.993
  H      242.314     -25.686      25.510
  H      237.987     -21.478      18.257
  H      243.276     -26.026      24.101
  H      239.342     -22.108      19.210
  P      234.406     -21.468      20.454
  C      234.491     -19.311      21.868
  O      234.925     -19.963      20.684
  O      233.026     -21.740      20.956
  O      234.465     -21.608      18.856
  H      233.548     -21.563      18.516
  H      234.902     -18.324      21.903
  H      234.821     -19.865      22.722
  H      233.423     -19.253      21.872

 6  7  8  9  10  11  12  13  14  15  16  26  30  31  32  33  35 0
 6-311+G(2d,p)
 ****
 37  38 0
 6-311+G(2d,p)
 ****
 1  2  3  4  5  17  18  19  20  21  22  23  24  25 0
 3-21G
 ****
 27  28  29  34  36  39  40  41  42  43  44  45  46 0
 3-21G
 ****


