%nproc=1
%NoSave
%Mem=1900MB
#P OB98/GEN NMR

erre ene a

0 1
  C      -90.021     333.741     357.184
  O      -91.000     334.785     357.264
  P      -92.557     334.397     357.234
  C      -93.291     335.128     359.587
  O      -93.362     335.406     358.193
  C      -93.528     336.378     360.446
  O      -92.370     337.260     360.416
  C      -94.744     337.218     360.026
  O      -95.327     337.752     361.223
  C      -94.103     338.322     359.202
  O      -94.963     339.452     359.040
  C      -92.819     338.565     360.010
  N      -91.810     339.278     359.248
  C      -92.065     340.616     358.930
  O      -93.167     341.110     359.203
  N      -91.095     341.347     358.290
  C      -90.027     340.746     357.868
  N      -89.074     341.502     357.253
  C      -89.796     339.296     358.023
  C      -90.704     338.633     358.735
  O      -92.863     332.949     357.445
  O      -93.013     334.871     355.764
  H      -95.736     339.183     358.504
  H      -93.694     334.253     355.432
  H      -88.927     338.824     357.580
  H      -90.627     337.572     358.908
  H      -93.040     339.134     360.927
  H      -93.862     337.940     358.201
  H      -95.502     336.642     359.485
  H      -93.651     336.056     361.491
  H      -89.254     342.494     357.136
  H      -92.302     334.710     359.823
  H      -88.184     341.121     356.941
  H      -94.014     334.342     359.833
  P      -96.890     337.513     361.497
  C      -96.648     335.384     362.964
  O      -97.035     336.735     362.891
  O      -97.233     336.359     360.436
  O      -97.790     338.696     361.281
  H      -98.195     336.397     360.219
  H      -96.542     335.100     364.021
  H      -95.694     335.204     362.471
  H      -97.423     334.745     362.505
  H      -89.041     334.168     357.217
  H      -90.146     333.205     356.267
  H      -90.146     333.071     358.009

 3  4  5  6  7  8  9  10  11  12  13  23  27  28  29  30  32 0
 6-311+G(2d,p)
 ****
 34  35 0
 6-311+G(2d,p)
 ****
 1  2  14  15  16  17  18  19  20  21  22  24  25  26 0
 3-21G
 ****
 31  33  36  37  38  39  40  41  42  43  44  45  46 0
 3-21G
 ****


