%nproc=1
%NoSave
%Mem=1900MB
#P OB98/GEN NMR

erre ene a

0 1
  C        0.851    1050.526      24.605
  O        1.744    1050.625      23.500
  P        1.255    1050.023      22.086
  C        3.630    1050.214      21.027
  O        2.561    1049.353      21.437
  C        4.777    1049.400      20.438
  O        5.378    1048.573      21.440
  C        4.364    1048.452      19.308
  O        4.256    1049.123      18.064
  C        5.548    1047.494      19.291
  O        6.663    1048.097      18.601
  C        5.879    1047.364      20.793
  N        6.038    1042.266      21.122
  C        6.737    1043.137      20.369
  N        6.618    1044.488      20.327
  C        5.651    1044.915      21.158
  C        4.837    1044.136      21.970
  C        5.070    1042.745      21.949
  N        4.377    1041.856      22.741
  N        3.954    1044.914      22.685
  C        4.246    1046.154      22.319
  N        5.271    1046.197      21.412
  O        1.028    1051.328      21.197
  O        0.037    1049.166      22.157
  H        6.810    1048.965      19.021
  H        0.402    1051.136      20.462
  H        7.472    1042.714      19.703
  H        3.747    1047.044      22.681
  H        6.955    1047.322      20.982
  H        5.330    1046.552      18.790
  H        3.443    1047.900      19.575
  H        5.541    1050.115      20.079
  H        4.005    1050.766      21.899
  H        4.722    1040.910      22.805
  H        3.803    1042.227      23.491
  H        3.249    1050.933      20.297
  P        3.471    1048.340      16.891
  C        4.060    1050.050      15.037
  O        4.215    1048.734      15.541
  O        2.066    1049.119      16.812
  O        3.288    1046.878      17.157
  H        1.369    1048.530      16.463
  H        4.857    1050.254      14.306
  H        4.131    1050.795      15.837
  H        3.105    1050.153      14.540
  H        1.304    1050.963      25.470
  H        0.635    1049.496      24.798
  H       -0.057    1051.045      24.377

 3  4  5  6  7  8  9  10  11  12  22  25  29  30  31  32 0
 6-311+G(2d,p)
 ****
 33  36  37 0
 6-311+G(2d,p)
 ****
 1  2  13  14  15  16  17  18  19  20  21  23  24  26 0
 3-21G
 ****
 27  28  34  35  38  39  40  41  42  43  44  45  46  47  48 0
 3-21G
 ****


