%nproc=1
%NoSave
%Mem=1900MB
#P OB98/GEN NMR

erre ene a

0 1
  C       27.719      74.303     943.873
  O       28.413      75.549     943.841
  P       29.863      75.573     943.172
  C       31.522      74.875     945.046
  O       30.738      74.465     943.944
  C       32.866      74.159     945.042
  O       32.686      72.723     945.111
  C       33.696      74.390     943.780
  O       34.403      75.619     943.814
  C       34.672      73.218     943.850
  O       35.734      73.519     944.771
  C       33.779      72.099     944.410
  N       34.834      68.157     941.388
  C       35.534      68.674     942.472
  N       36.717      68.073     942.749
  N       35.125      69.654     943.218
  C       33.923      70.158     942.812
  C       33.127      69.754     941.775
  C       33.611      68.651     940.956
  O       33.057      68.198     939.950
  N       31.983      70.494     941.685
  C       32.074      71.360     942.674
  N       33.270      71.221     943.368
  O       30.487      76.956     943.682
  O       29.870      75.478     941.676
  H       36.312      74.180     944.337
  H       31.257      77.208     943.130
  H       35.196      67.401     940.850
  H       31.337      72.101     942.925
  H       34.323      71.469     945.129
  H       35.136      72.990     942.894
  H       37.125      67.341     942.180
  H       33.083      74.295     942.872
  H       37.294      68.455     943.496
  H       33.432      74.469     945.933
  H       30.989      74.652     945.975
  H       31.677      75.959     945.004
  P       34.617      76.370     942.404
  C       36.361      74.647     941.545
  O       35.086      75.223     941.391
  O       35.950      77.228     942.654
  O       33.462      77.216     941.981
  H       35.956      78.001     942.079
  H       36.416      73.727     940.961
  H       36.559      74.397     942.596
  H       37.134      75.340     941.188
  H       26.769      74.436     944.346
  H       28.294      73.588     944.423
  H       27.573      73.950     942.873

 3  4  5  6  7  8  9  10  11  12  23  26  30  31 0
 6-311+G(2d,p)
 ****
 33  35  36  37  38 0
 6-311+G(2d,p)
 ****
 1  2  13  14  15  16  17  18  19  20  21  22  24  25 0
 3-21G
 ****
 27  28  29  32  34  39  40  41  42  43  44  45  46  47  48  49 0
 3-21G
 ****


