%nproc=1
%NoSave
%Mem=1900MB
#P OB98/GEN NMR

erre ene a

0 1
  C      629.652    -226.596     175.896
  O      630.651    -225.921     176.632
  H      629.730    -227.662     176.096
  H      629.806    -226.424     174.829
  H      628.653    -226.253     176.191
  P      630.514    -224.323     176.752
  C      632.938    -223.825     175.946
  O      631.994    -223.757     177.014
  C      634.361    -223.726     176.483
  O      634.569    -222.444     177.124
  C      634.719    -224.782     177.527
  O      635.109    -226.008     176.912
  C      635.891    -224.114     178.224
  O      637.070    -224.236     177.395
  C      635.437    -222.652     178.275
  N      635.654    -222.292     183.338
  C      636.589    -222.779     182.442
  N      637.750    -223.241     182.966
  N      636.406    -222.812     181.146
  C      635.193    -222.336     180.765
  C      634.191    -221.839     181.560
  C      634.410    -221.786     182.984
  O      633.622    -221.359     183.821
  N      633.107    -221.450     180.811
  C      633.451    -221.737     179.569
  N      634.714    -222.280     179.482
  O      629.775    -224.133     178.160
  O      629.751    -223.672     175.650
  H      637.227    -225.192     177.268
  H      628.832    -223.939     178.008
  H      635.841    -222.297     184.327
  H      632.827    -221.569     178.701
  H      636.272    -221.949     178.186
  H      636.133    -224.574     179.186
  H      637.943    -223.270     183.954
  H      633.900    -224.938     178.248
  H      638.448    -223.599     182.328
  H      635.052    -223.776     175.628
  H      632.750    -222.991     175.257
  H      632.807    -224.772     175.415
  P      634.988    -227.359     177.768
  C      637.398    -228.156     177.228
  O      636.007    -228.413     177.118
  O      633.550    -227.910     177.350
  O      635.102    -227.193     179.245
  H      632.931    -227.866     178.106
  H      637.945    -228.942     176.750
  H      637.671    -228.109     178.261
  H      637.627    -227.224     176.756

 6  7  8  9  10  11  12  13  14  15  26  29  33  34 0
 6-311+G(2d,p)
 ****
 36  38  39  40  41 0
 6-311+G(2d,p)
 ****
 1  2  3  4  5  16  17  18  19  20  21  22  23  24  25 0
 3-21G
 ****
 27  28  30  31  32  35  37  42  43  44  45  46  47 0
 3-21G
 ****
 48  49 0
 3-21G
 ****


