%nproc=1
%NoSave
%Mem=1900MB
#P OB98/GEN NMR

erre ene a

0 1
  C      106.325    -500.745    -169.419
  O      105.463    -501.444    -170.296
  H      107.201    -500.409    -169.980
  H      106.658    -501.411    -168.619
  H      105.824    -499.871    -168.993
  P      103.982    -501.761    -169.769
  C      102.842    -503.668    -168.426
  O      104.034    -503.198    -169.042
  C      103.183    -504.657    -167.314
  O      103.832    -505.816    -167.902
  C      104.123    -504.097    -166.236
  O      103.712    -504.587    -164.960
  C      105.475    -504.680    -166.608
  O      106.356    -504.770    -165.488
  C      105.071    -506.030    -167.193
  N      108.826    -509.372    -167.582
  C      107.915    -509.162    -166.562
  N      108.028    -509.962    -165.478
  N      106.983    -508.250    -166.602
  C      106.966    -507.549    -167.762
  C      107.815    -507.653    -168.842
  C      108.860    -508.653    -168.775
  O      109.709    -508.866    -169.630
  N      107.489    -506.737    -169.817
  C      106.454    -506.081    -169.325
  N      106.092    -506.548    -168.083
  O      103.169    -502.049    -171.120
  O      103.344    -500.674    -168.967
  H      107.204    -505.139    -165.814
  H      102.481    -501.367    -171.240
  H      109.536    -510.080    -167.501
  H      105.935    -505.272    -169.821
  H      104.901    -506.784    -166.417
  H      105.953    -504.050    -167.364
  H      108.694    -510.717    -165.401
  H      104.137    -503.007    -166.214
  H      107.350    -509.854    -164.730
  H      102.245    -505.012    -166.866
  H      102.223    -504.162    -169.183
  H      102.290    -502.816    -168.012
  P      103.001    -503.544    -163.969
  C      103.789    -501.574    -162.477
  O      104.144    -502.786    -163.120
  O      102.296    -504.490    -162.881
  O      102.008    -502.654    -164.637
  H      101.331    -504.486    -163.016
  H      104.638    -501.185    -161.955
  H      102.997    -501.758    -161.782
  H      103.464    -500.864    -163.209

 6  7  8  9  10  11  12  13  14  15  26  29  33  34 0
 6-311+G(2d,p)
 ****
 36  38  39  40  41 0
 6-311+G(2d,p)
 ****
 1  2  3  4  5  16  17  18  19  20  21  22  23  24  25 0
 3-21G
 ****
 27  28  30  31  32  35  37  42  43  44  45  46  47 0
 3-21G
 ****
 48  49 0
 3-21G
 ****


