%nproc=1
%NoSave
%Mem=1900MB
#P OB98/GEN NMR

erre ene a

0 1
  C      322.041      47.181     632.931
  O      321.316      46.376     631.995
  P      320.015      45.605     632.535
  C      318.652      45.308     630.330
  O      319.432      44.693     631.350
  C      318.262      44.278     629.271
  O      319.404      43.835     628.527
  C      317.655      43.013     629.863
  O      316.307      43.233     630.234
  C      317.824      42.022     628.719
  O      316.689      42.019     627.834
  C      319.088      42.541     627.984
  N      320.220      41.630     628.105
  C      320.191      40.503     627.265
  O      319.235      40.324     626.507
  N      321.227      39.605     627.346
  C      322.196      39.800     628.198
  N      323.189      38.874     628.217
  C      322.246      40.957     629.110
  C      321.233      41.819     629.016
  O      318.935      46.771     632.672
  O      320.233      44.888     633.832
  H      315.922      41.798     628.393
  H      318.330      46.586     633.422
  H      323.065      41.075     629.803
  H      321.195      42.699     629.649
  H      318.880      42.682     626.917
  H      317.934      40.998     629.095
  H      318.242      42.686     630.726
  H      317.542      44.751     628.569
  H      323.123      38.090     627.573
  H      319.217      46.126     629.870
  H      323.976      38.926     628.844
  H      317.763      45.767     630.785
  P      315.671      42.260     631.323
  C      317.246      43.030     633.199
  O      315.908      43.002     632.736
  O      316.730      41.071     631.392
  O      314.276      41.756     631.071
  H      316.419      40.356     631.958
  H      317.301      43.734     634.047
  H      317.923      43.377     632.415
  H      317.546      42.043     633.549
  H      322.877      47.633     632.440
  H      322.389      46.567     633.735
  H      321.399      47.945     633.317

 3  4  5  6  7  8  9  10  11  12  13  21  23  27  28  29  30  32 0
 6-311+G(2d,p)
 ****
 34  35 0
 6-311+G(2d,p)
 ****
 1  2  14  15  16  17  18  19  20  22  24  25  26 0
 3-21G
 ****
 31  33  36  37  38  39  40  41  42  43  44  45  46 0
 3-21G
 ****


