%nproc=1
%NoSave
%Mem=1900MB
#P OB98/GEN NMR

erre ene a

0 1
  C      140.227    -428.314     222.753
  O      139.012    -427.916     222.142
  H      141.003    -427.588     222.492
  H      140.537    -429.301     222.403
  H      140.114    -428.322     223.843
  P      137.786    -428.952     222.166
  C      137.779    -428.748     219.588
  O      136.997    -428.710     220.782
  C      136.896    -428.991     218.360
  O      136.310    -430.304     218.422
  C      135.716    -428.030     218.257
  O      136.076    -426.695     217.962
  C      134.769    -428.775     217.324
  O      135.035    -428.555     215.944
  C      135.066    -430.255     217.686
  N      133.970    -430.873     218.421
  C      132.940    -431.401     217.651
  O      132.919    -431.342     216.418
  N      131.908    -431.959     218.344
  C      131.777    -432.003     219.701
  O      130.800    -432.485     220.264
  C      132.884    -431.403     220.467
  C      133.915    -430.878     219.806
  O      136.906    -428.898     223.377
  O      138.483    -430.375     221.940
  H      134.530    -429.227     215.445
  H      137.877    -431.113     222.198
  H      131.156    -432.364     217.798
  H      132.818    -431.414     221.555
  H      134.746    -430.428     220.344
  H      135.224    -430.838     216.770
  H      133.727    -428.491     217.500
  H      135.221    -427.993     219.236
  H      137.526    -428.940     217.465
  H      138.498    -429.574     219.684
  H      138.333    -427.811     219.482
  P      136.025    -425.516     219.035
  C      133.845    -424.343     218.232
  O      135.258    -424.266     218.363
  O      137.273    -425.259     219.823
  O      134.912    -426.076     220.062
  H      135.167    -425.776     220.959
  H      133.480    -423.448     217.773
  H      133.403    -424.453     219.200
  H      133.589    -425.186     217.625

 6  7  8  9  10  11  12  13  14  15  16  26  31  32  33  34  35 0
 6-311+G(2d,p)
 ****
 36  37 0
 6-311+G(2d,p)
 ****
 1  2  3  4  5  17  18  19  20  21  22  23  24  25 0
 3-21G
 ****
 27  28  29  30  38  39  40  41  42  43  44  45 0
 3-21G
 ****


