%nproc=1
%NoSave
%Mem=1900MB
#P OB98/GEN NMR

erre ene a

0 1
  C      596.298     218.827    -645.535
  O      595.095     218.894    -644.794
  H      596.969     219.636    -645.233
  H      596.788     217.872    -645.322
  H      596.093     218.886    -646.603
  P      594.210     220.225    -644.971
  C      593.348     219.755    -642.565
  O      593.859     220.712    -643.485
  C      593.373     220.338    -641.152
  O      594.731     220.589    -640.736
  C      592.651     221.673    -641.014
  O      591.243     221.511    -640.888
  C      593.261     222.188    -639.728
  O      592.662     221.518    -638.600
  C      594.725     221.767    -639.887
  N      597.545     225.938    -638.973
  C      596.808     225.151    -638.166
  N      596.084     224.063    -638.484
  C      596.168     223.807    -639.795
  C      596.872     224.522    -640.752
  C      597.596     225.639    -640.297
  N      598.339     226.451    -641.128
  N      596.685     223.979    -642.011
  C      595.914     222.928    -641.809
  N      595.561     222.789    -640.489
  O      592.808     219.674    -645.512
  O      594.790     221.277    -645.857
  H      593.118     220.660    -638.509
  H      592.314     220.387    -645.955
  H      596.808     225.436    -637.111
  H      595.575     222.251    -642.576
  H      595.188     221.488    -638.926
  H      593.105     223.261    -639.578
  H      592.900     222.359    -641.836
  H      592.944     219.590    -640.470
  H      593.975     218.857    -642.592
  H      598.664     227.321    -640.732
  H      598.251     226.322    -642.123
  H      592.328     219.486    -642.850
  P      590.330     222.015    -642.110
  C      588.167     221.893    -640.658
  O      589.048     222.706    -641.438
  O      589.750     220.654    -642.717
  O      591.052     222.833    -643.134
  H      589.533     220.764    -643.660
  H      587.367     222.495    -640.281
  H      588.708     221.465    -639.840
  H      587.768     221.111    -641.270

 6  7  8  9  10  11  12  13  14  15  25  28  32  33  34  35 0
 6-311+G(2d,p)
 ****
 36  39  40 0
 6-311+G(2d,p)
 ****
 1  2  3  4  5  16  17  18  19  20  21  22  23  24 0
 3-21G
 ****
 26  27  29  30  31  37  38  41  42  43  44  45  46  47 0
 3-21G
 ****
 48 0
 3-21G
 ****


