%nproc=1
%NoSave
%Mem=1900MB
#P OB98/GEN NMR

erre ene a

0 1
  C      -51.695      32.145     -76.469
  O      -50.321      31.865     -76.636
  H      -51.854      32.542     -75.461
  H      -52.288      31.233     -76.589
  H      -52.017      32.894     -77.198
  P      -49.894      31.168     -78.020
  C      -48.128      32.941     -78.762
  O      -49.432      32.407     -78.936
  C      -48.212      34.318     -78.111
  O      -48.768      34.221     -76.776
  C      -46.867      35.020     -77.931
  O      -46.371      35.592     -79.129
  C      -47.257      36.078     -76.915
  O      -48.009      37.119     -77.564
  C      -48.148      35.253     -75.962
  N      -47.399      34.653     -74.854
  C      -47.138      35.480     -73.753
  O      -47.527      36.650     -73.735
  N      -46.414      34.968     -72.700
  C      -46.003      33.742     -72.734
  N      -45.286      33.293     -71.664
  C      -46.263      32.831     -73.866
  C      -46.958      33.346     -74.878
  O      -51.296      30.752     -78.673
  O      -48.904      30.058     -77.915
  H      -47.366      37.668     -78.051
  H      -51.157      30.441     -79.602
  H      -45.889      31.818     -73.856
  H      -47.191      32.737     -75.745
  H      -48.953      35.872     -75.547
  H      -46.400      36.554     -76.439
  H      -46.123      34.352     -77.484
  H      -48.904      34.933     -78.707
  H      -45.073      33.958     -70.931
  H      -47.656      33.017     -79.748
  H      -44.797      32.408     -71.660
  H      -47.533      32.277     -78.129
  P      -44.827      35.335     -79.489
  C      -45.095      34.230     -81.834
  O      -44.778      34.053     -80.456
  O      -44.225      34.780     -78.118
  O      -44.085      36.537     -79.983
  H      -43.296      35.067     -77.998
  H      -45.018      33.291     -82.341
  H      -44.412      34.928     -82.270
  H      -46.093      34.604     -81.925

 6  7  8  9  10  11  12  13  14  15  16  26  30  31  32  33  35 0
 6-311+G(2d,p)
 ****
 37  38 0
 6-311+G(2d,p)
 ****
 1  2  3  4  5  17  18  19  20  21  22  23  24  25 0
 3-21G
 ****
 27  28  29  34  36  39  40  41  42  43  44  45  46 0
 3-21G
 ****


