%nproc=1
%NoSave
%Mem=1900MB
#P OB98/GEN NMR

erre ene a

0 1
  C       -0.502     321.422      56.985
  O        0.670     320.661      56.785
  P        1.700     320.937      55.595
  C        0.796     318.734      54.553
  O        1.244     320.067      54.323
  C        1.436     317.713      53.599
  O        1.144     318.084      52.234
  C        2.963     317.747      53.738
  O        3.597     317.013      54.767
  C        3.493     317.477      52.334
  O        3.870     316.112      52.144
  C        2.311     317.840      51.432
  N        4.629     319.635      47.294
  C        4.396     318.322      47.661
  N        5.027     317.382      46.924
  N        3.638     317.976      48.673
  C        3.153     319.031      49.369
  C        3.304     320.370      49.093
  C        4.110     320.738      47.957
  O        4.412     321.891      47.649
  N        2.733     321.155      50.062
  C        2.270     320.297      50.945
  N        2.537     318.995      50.585
  O        3.151     320.973      55.955
  O        1.278     322.431      55.151
  H        3.151     315.552      52.491
  H        2.090     322.891      54.865
  H        5.290     319.842      46.558
  H        1.770     320.559      51.869
  H        2.063     317.001      50.768
  H        4.390     318.075      52.142
  H        5.734     317.616      46.242
  H        3.236     318.788      53.947
  H        5.018     316.427      47.270
  H        1.004     316.720      53.737
  H       -0.295     318.733      54.448
  H        1.020     318.447      55.584
  P        4.772     317.536      55.718
  C        6.618     316.632      54.190
  O        6.077     317.781      54.820
  O        5.178     316.254      56.587
  O        4.402     318.677      56.609
  H        5.614     316.541      57.412
  H        7.641     316.849      53.872
  H        6.016     316.384      53.307
  H        6.626     315.780      54.875
  H       -1.027     321.050      57.840
  H       -1.128     321.346      56.121
  H       -0.239     322.447      57.146

 3  4  5  6  7  8  9  10  11  12  23  26  30  31 0
 6-311+G(2d,p)
 ****
 33  35  36  37  38 0
 6-311+G(2d,p)
 ****
 1  2  13  14  15  16  17  18  19  20  21  22  24  25 0
 3-21G
 ****
 27  28  29  32  34  39  40  41  42  43  44  45  46  47  48  49 0
 3-21G
 ****


