%nproc=1
%NoSave
%Mem=1900MB
#P OB98/GEN NMR

erre ene a

0 1
  C     -237.179     496.550    -154.940
  O     -237.694     495.304    -154.483
  P     -238.435     494.350    -155.539
  C     -237.168     494.196    -157.861
  O     -237.363     493.720    -156.545
  C     -235.923     493.515    -158.459
  O     -234.740     493.896    -157.733
  C     -235.997     491.989    -158.423
  O     -236.671     491.466    -159.555
  C     -234.530     491.608    -158.364
  O     -233.927     491.716    -159.671
  C     -233.974     492.700    -157.421
  N     -234.052     492.456    -155.958
  C     -233.256     491.466    -155.379
  O     -232.479     490.746    -155.999
  N     -233.377     491.326    -154.015
  C     -234.056     492.157    -153.176
  O     -234.077     492.018    -151.957
  C     -234.752     493.273    -153.825
  C     -234.729     493.367    -155.157
  O     -239.266     495.360    -156.450
  O     -239.310     493.304    -154.916
  H     -233.927     492.658    -159.909
  H     -240.223     495.207    -156.344
  H     -232.868     490.564    -153.592
  H     -235.265     493.986    -153.187
  H     -235.247     494.189    -155.645
  H     -232.921     492.904    -157.650
  H     -234.408     490.571    -158.057
  H     -236.473     491.654    -157.499
  H     -235.811     493.855    -159.502
  H     -237.036     495.279    -157.865
  H     -238.049     493.977    -158.469
  P     -238.250     491.181    -159.482
  C     -239.731     493.118    -158.677
  O     -238.957     492.610    -159.744
  O     -238.729     490.433    -158.286
  O     -238.553     490.397    -160.851
  H     -238.554     489.423    -160.697
  H     -240.014     494.151    -158.915
  H     -239.147     493.120    -157.752
  H     -240.636     492.526    -158.554
  H     -236.718     497.066    -154.124
  H     -237.978     497.144    -155.332
  H     -236.454     496.376    -155.708

 3  4  5  6  7  8  9  10  11  12  13  23  28  29  30  31  32 0
 6-311+G(2d,p)
 ****
 33  34 0
 6-311+G(2d,p)
 ****
 1  2  14  15  16  17  18  19  20  21  22  24  25  26  27 0
 3-21G
 ****
 35  36  37  38  39  40  41  42  43  44  45 0
 3-21G
 ****


