%nproc=1
%NoSave
%Mem=1900MB
#P OB98/GEN NMR

erre ene a

0 1
  C     -756.485      62.260    -986.266
  O     -756.353      60.859    -986.337
  H     -757.540      62.530    -986.411
  H     -755.897      62.749    -987.049
  H     -756.176      62.627    -985.284
  P     -754.873      60.273    -986.178
  C     -755.148      58.725    -988.243
  O     -754.446      59.833    -987.665
  C     -754.619      58.455    -989.650
  O     -755.035      59.501    -990.546
  C     -753.109      58.377    -989.754
  O     -752.648      57.072    -989.398
  C     -752.905      58.653    -991.245
  O     -753.138      57.434    -991.996
  C     -754.009      59.681    -991.558
  N     -755.488      64.555    -992.206
  C     -756.133      63.379    -992.444
  N     -755.648      62.118    -992.288
  C     -754.386      62.138    -991.853
  C     -753.602      63.252    -991.558
  C     -754.203      64.501    -991.753
  N     -753.557      65.701    -991.520
  N     -752.350      62.877    -991.140
  C     -752.397      61.571    -991.105
  N     -753.589      61.059    -991.560
  O     -754.688      59.242    -985.109
  O     -754.027      61.622    -985.963
  H     -753.417      57.713    -992.898
  H     -754.359      62.323    -986.561
  H     -757.142      63.454    -992.793
  H     -751.583      60.923    -990.742
  H     -754.474      59.486    -992.531
  H     -751.895      58.970    -991.486
  H     -752.614      59.171    -989.185
  H     -755.086      57.508    -990.000
  H     -756.222      58.935    -988.280
  H     -753.997      66.526    -991.863
  H     -752.571      65.659    -991.317
  H     -754.979      57.857    -987.599
  P     -751.127      56.834    -988.975
  C     -750.960      55.233    -990.993
  O     -750.386      56.342    -990.300
  O     -750.946      55.934    -987.776
  O     -750.537      58.310    -988.726
  H     -749.703      58.251    -988.216
  H     -750.370      55.008    -991.856
  H     -751.956      55.479    -991.296
  H     -750.984      54.382    -990.345

 6  7  8  9  10  11  12  13  14  15  25  28  32  33  34  35 0
 6-311+G(2d,p)
 ****
 36  39  40 0
 6-311+G(2d,p)
 ****
 1  2  3  4  5  16  17  18  19  20  21  22  23  24 0
 3-21G
 ****
 26  27  29  30  31  37  38  41  42  43  44  45  46  47 0
 3-21G
 ****
 48 0
 3-21G
 ****


