%nproc=1
%NoSave
%Mem=1900MB
#P OB98/GEN NMR

erre ene a

0 1
  C     -295.356      25.878    -172.897
  O     -294.103      25.920    -173.550
  H     -295.274      25.216    -172.029
  H     -296.119      25.478    -173.567
  H     -295.646      26.874    -172.550
  P     -293.918      26.900    -174.805
  C     -291.439      26.685    -174.158
  O     -292.368      26.828    -175.221
  C     -290.306      25.740    -174.557
  O     -290.878      24.470    -174.967
  C     -289.448      26.265    -175.716
  O     -288.090      25.899    -175.474
  C     -289.975      25.503    -176.917
  O     -288.995      25.367    -177.945
  C     -290.390      24.172    -176.289
  N     -291.399      22.100    -180.785
  C     -290.220      22.620    -180.286
  N     -289.153      22.609    -181.116
  N     -290.096      23.110    -179.080
  C     -291.240      23.043    -178.353
  C     -292.469      22.557    -178.735
  C     -292.597      22.031    -180.077
  O     -293.616      21.572    -180.579
  N     -293.391      22.691    -177.724
  C     -292.719      23.257    -176.740
  N     -291.413      23.502    -177.075
  O     -294.443      28.288    -174.618
  O     -294.657      26.142    -176.003
  H     -289.463      25.050    -178.748
  H     -295.545      26.517    -176.152
  H     -291.440      21.746    -181.723
  H     -293.130      23.518    -175.771
  H     -289.548      23.474    -176.201
  H     -290.844      26.028    -177.335
  H     -289.168      22.233    -182.049
  H     -289.523      27.349    -175.848
  H     -288.269      22.963    -180.761
  H     -289.691      25.541    -173.672
  H     -291.971      26.275    -173.291
  H     -291.033      27.668    -173.893
  P     -287.214      26.799    -174.478
  C     -285.956      24.635    -173.868
  O     -285.845      26.021    -174.172
  O     -287.932      27.320    -173.277
  O     -286.724      27.999    -175.426
  H     -286.613      28.803    -174.881
  H     -284.982      24.231    -173.684
  H     -286.404      24.123    -174.694
  H     -286.565      24.508    -172.997

 6  7  8  9  10  11  12  13  14  15  26  29  33  34 0
 6-311+G(2d,p)
 ****
 36  38  39  40  41 0
 6-311+G(2d,p)
 ****
 1  2  3  4  5  16  17  18  19  20  21  22  23  24  25 0
 3-21G
 ****
 27  28  30  31  32  35  37  42  43  44  45  46  47 0
 3-21G
 ****
 48  49 0
 3-21G
 ****


