%nproc=1
%NoSave
%Mem=1900MB
#P OB98/GEN NMR

erre ene a

0 1
  C        8.929     256.326    -207.190
  O        9.315     255.684    -205.990
  H        8.591     255.581    -207.927
  H        8.103     257.012    -206.984
  H        9.779     256.893    -207.603
  P       10.445     254.554    -206.116
  C       10.613     252.240    -207.281
  O        9.785     253.349    -206.960
  C        9.770     251.031    -207.627
  O        9.025     251.259    -208.855
  C       10.543     249.743    -207.873
  O       10.938     249.125    -206.659
  C        9.509     248.919    -208.608
  O        8.592     248.332    -207.669
  C        8.777     249.968    -209.460
  N        8.544     247.666    -214.054
  C        7.989     247.362    -212.852
  N        8.108     248.011    -211.675
  C        8.874     249.098    -211.808
  C        9.532     249.539    -212.953
  C        9.341     248.765    -214.122
  N        9.940     249.080    -215.327
  N       10.232     250.695    -212.710
  C       10.015     250.959    -211.440
  N        9.216     250.011    -210.840
  O       10.541     253.961    -204.626
  O       11.772     255.028    -206.605
  H        9.130     247.834    -207.014
  H       11.465     253.716    -204.446
  H        7.368     246.477    -212.849
  H       10.420     251.817    -210.909
  H        7.693     249.820    -209.443
  H        9.934     248.104    -209.196
  H       11.401     249.929    -208.538
  H        9.024     250.881    -206.818
  H       11.251     251.990    -206.422
  H        9.609     248.609    -216.157
  H       10.522     249.910    -215.377
  H       11.255     252.517    -208.135
  P       12.066     247.971    -206.743
  C       12.227     245.699    -207.987
  O       11.386     246.779    -207.587
  O       12.107     247.396    -205.255
  O       13.417     248.433    -207.214
  H       12.979     246.994    -205.079
  H       11.651     244.983    -208.536
  H       12.644     245.232    -207.120
  H       13.016     246.072    -208.606

 6  7  8  9  10  11  12  13  14  15  25  28  32  33  34  35 0
 6-311+G(2d,p)
 ****
 36  39  40 0
 6-311+G(2d,p)
 ****
 1  2  3  4  5  16  17  18  19  20  21  22  23  24 0
 3-21G
 ****
 26  27  29  30  31  37  38  41  42  43  44  45  46  47  48 0
 3-21G
 ****


