%nproc=1
%NoSave
%Mem=1900MB
#P OB98/GEN NMR

erre ene a

0 1
  C      339.066     157.705    -384.083
  O      340.078     157.017    -383.379
  H      338.706     158.553    -383.495
  H      339.481     158.081    -385.022
  H      338.235     157.031    -384.310
  P      339.681     156.415    -381.946
  C      338.571     154.146    -382.530
  O      339.740     154.813    -382.075
  C      338.765     152.634    -382.436
  O      337.490     151.994    -382.689
  C      339.794     152.057    -383.424
  O      340.828     151.367    -382.716
  C      339.007     151.040    -384.238
  O      339.740     149.846    -384.504
  C      337.781     150.770    -383.377
  N      336.099     147.165    -386.563
  C      337.071     147.142    -385.624
  N      337.400     148.104    -384.736
  C      336.583     149.165    -384.860
  C      335.533     149.320    -385.750
  C      335.311     148.261    -386.647
  N      334.357     148.303    -387.640
  N      334.930     150.554    -385.584
  C      335.629     151.149    -384.640
  N      336.652     150.357    -384.186
  O      338.112     156.724    -381.840
  O      340.435     156.984    -380.791
  H      339.212     149.327    -385.140
  H      337.915     157.122    -380.971
  H      337.673     146.241    -385.590
  H      335.474     152.157    -384.283
  H      337.967     149.992    -382.625
  H      338.728     151.495    -385.197
  H      340.233     152.823    -384.071
  H      339.050     152.390    -381.403
  H      338.378     154.415    -383.574
  H      334.345     147.552    -388.309
  H      333.841     149.161    -387.775
  H      337.718     154.468    -381.924
  P      342.234     152.133    -382.563
  C      341.769     153.733    -380.562
  O      342.396     152.539    -381.020
  O      341.957     153.537    -383.286
  O      343.389     151.410    -383.171
  H      342.792     153.906    -383.631
  H      341.969     153.863    -379.519
  H      340.713     153.663    -380.716
  H      342.154     154.570    -381.106

 6  7  8  9  10  11  12  13  14  15  25  28  32  33  34  35 0
 6-311+G(2d,p)
 ****
 36  39  40 0
 6-311+G(2d,p)
 ****
 1  2  3  4  5  16  17  18  19  20  21  22  23  24 0
 3-21G
 ****
 26  27  29  30  31  37  38  41  42  43  44  45  46  47  48 0
 3-21G
 ****


