%nproc=1
%NoSave
%Mem=1900MB
#P OB98/GEN NMR

erre ene a

0 1
  C      -45.730    -876.475     319.106
  O      -44.366    -876.082     319.143
  P      -43.645    -875.797     320.541
  C      -44.306    -873.334     320.202
  O      -43.279    -874.237     320.607
  C      -43.731    -871.935     319.984
  O      -43.187    -871.406     321.210
  C      -42.583    -871.887     318.988
  O      -43.028    -872.048     317.653
  C      -41.987    -870.523     319.303
  O      -42.734    -869.476     318.667
  C      -42.160    -870.455     320.838
  N      -40.917    -870.703     321.549
  C      -40.173    -869.573     321.902
  O      -40.530    -868.457     321.538
  N      -39.029    -869.746     322.649
  C      -38.607    -870.943     322.909
  N      -37.509    -871.055     323.700
  C      -39.280    -872.166     322.414
  C      -40.431    -871.972     321.766
  O      -42.521    -876.715     320.882
  O      -44.824    -875.926     321.621
  H      -44.534    -876.519     322.337
  H      -42.402    -868.631     319.033
  H      -38.849    -873.135     322.597
  H      -41.002    -872.810     321.386
  H      -42.544    -869.469     321.131
  H      -40.950    -870.436     318.959
  H      -41.855    -872.666     319.228
  H      -44.551    -871.279     319.661
  H      -37.090    -870.198     324.034
  H      -45.071    -873.299     320.985
  H      -37.294    -871.902     324.217
  H      -44.769    -873.707     319.282
  P      -42.379    -873.251     316.815
  C      -40.047    -872.316     316.176
  O      -41.365    -872.605     315.758
  O      -43.591    -873.776     315.912
  O      -41.804    -874.355     317.648
  H      -43.541    -874.742     315.817
  H      -39.416    -872.222     315.297
  H      -39.653    -873.104     316.816
  H      -40.043    -871.363     316.723
  H      -46.032    -876.619     318.090
  H      -46.333    -875.713     319.553
  H      -45.852    -877.390     319.647

 3  4  5  6  7  8  9  10  11  12  13  24  27  28  29  30  32 0
 6-311+G(2d,p)
 ****
 34  35 0
 6-311+G(2d,p)
 ****
 1  2  14  15  16  17  18  19  20  21  22  23  25  26 0
 3-21G
 ****
 31  33  36  37  38  39  40  41  42  43  44  45  46 0
 3-21G
 ****


