%nproc=1
%NoSave
%Mem=1900MB
#P OB98/GEN NMR

erre ene a

0 1
  C       26.075    -158.083     -58.674
  O       25.916    -159.465     -59.012
  P       27.180    -160.430     -58.806
  C       27.447    -161.370     -61.211
  O       27.087    -161.634     -59.863
  C       27.776    -162.667     -61.966
  O       28.834    -163.403     -61.293
  C       26.584    -163.621     -62.092
  O       26.730    -164.366     -63.306
  C       26.791    -164.562     -60.919
  O       26.058    -165.776     -61.080
  C       28.312    -164.700     -60.943
  N       29.095    -168.724     -58.005
  C       28.482    -168.628     -59.240
  N       28.045    -169.783     -59.787
  N       28.315    -167.501     -59.883
  C       28.836    -166.435     -59.227
  C       29.458    -166.400     -58.000
  C       29.614    -167.652     -57.291
  O       30.135    -167.793     -56.190
  N       29.826    -165.122     -57.663
  C       29.420    -164.387     -58.681
  N       28.847    -165.141     -59.670
  O       26.866    -161.139     -57.404
  O       28.489    -159.710     -58.765
  H       26.410    -166.225     -61.879
  H       27.463    -160.792     -56.719
  H       29.188    -169.617     -57.552
  H       29.514    -163.314     -58.752
  H       28.652    -165.421     -61.698
  H       26.455    -164.080     -59.992
  H       28.189    -170.690     -59.371
  H       25.603    -163.138     -62.079
  H       27.630    -169.746     -60.710
  H       28.145    -162.404     -62.964
  H       28.310    -160.701     -61.247
  H       26.629    -160.824     -61.695
  P       25.746    -163.986     -64.514
  C       23.744    -165.437     -63.720
  O       24.754    -165.231     -64.688
  O       26.685    -164.070     -65.807
  O       25.088    -162.653     -64.383
  H       26.335    -163.503     -66.516
  H       22.785    -165.108     -64.127
  H       23.950    -164.896     -62.790
  H       23.688    -166.506     -63.495
  H       25.159    -157.563     -58.860
  H       26.855    -157.657     -59.270
  H       26.330    -157.996     -57.639

 3  4  5  6  7  8  9  10  11  12  23  26  30  31 0
 6-311+G(2d,p)
 ****
 33  35  36  37  38 0
 6-311+G(2d,p)
 ****
 1  2  13  14  15  16  17  18  19  20  21  22  24  25 0
 3-21G
 ****
 27  28  29  32  34  39  40  41  42  43  44  45  46  47  48  49 0
 3-21G
 ****


