%nproc=1
%NoSave
%Mem=1900MB
#P OB98/GEN NMR

erre ene a

0 1
  C      -19.616     294.965    -339.041
  O      -20.180     295.579    -337.902
  P      -21.273     294.807    -337.021
  C      -22.027     297.031    -335.976
  O      -21.602     295.695    -335.728
  C      -22.230     297.780    -334.662
  O      -23.237     297.130    -333.848
  C      -20.992     297.836    -333.783
  O      -20.021     298.734    -334.287
  C      -21.602     298.233    -332.446
  O      -21.845     299.649    -332.393
  C      -22.941     297.463    -332.472
  N      -22.912     296.272    -331.635
  C      -22.661     296.485    -330.273
  O      -22.401     297.614    -329.855
  N      -22.701     295.407    -329.425
  C      -22.854     294.212    -329.904
  N      -22.950     293.189    -329.014
  C      -22.958     293.929    -331.356
  C      -23.003     294.999    -332.151
  O      -20.961     293.375    -336.737
  O      -22.620     294.931    -337.883
  H      -23.020     294.043    -337.975
  H      -20.975     300.084    -332.512
  H      -23.013     292.911    -331.708
  H      -23.101     294.890    -333.224
  H      -23.759     298.108    -332.139
  H      -20.953     297.987    -331.598
  H      -20.552     296.835    -333.698
  H      -22.582     298.793    -334.897
  H      -22.890     293.423    -328.027
  H      -22.969     297.000    -336.534
  H      -23.381     292.299    -329.247
  H      -21.279     297.538    -336.596
  P      -18.592     298.112    -334.676
  C      -17.332     299.564    -332.939
  O      -17.478     299.201    -334.301
  O      -18.610     298.127    -336.279
  O      -18.346     296.740    -334.152
  H      -18.148     297.337    -336.620
  H      -16.344     300.017    -332.807
  H      -17.413     298.693    -332.284
  H      -18.093     300.299    -332.672
  H      -18.912     295.632    -339.494
  H      -20.391     294.734    -339.742
  H      -19.118     294.064    -338.750

 3  4  5  6  7  8  9  10  11  12  13  24  27  28  29  30  32 0
 6-311+G(2d,p)
 ****
 34  35 0
 6-311+G(2d,p)
 ****
 1  2  14  15  16  17  18  19  20  21  22  23  25  26 0
 3-21G
 ****
 31  33  36  37  38  39  40  41  42  43  44  45  46 0
 3-21G
 ****


