%nproc=1
%NoSave
%Mem=1900MB
#P OB98/GEN NMR

erre ene a

0 1
  C     -419.205    -247.722    -250.063
  O     -418.504    -247.725    -251.293
  P     -419.283    -247.196    -252.591
  C     -418.448    -244.751    -252.276
  O     -418.472    -245.914    -253.102
  C     -417.082    -244.072    -252.348
  O     -416.087    -244.893    -251.692
  C     -416.575    -243.853    -253.759
  O     -417.214    -242.741    -254.350
  C     -415.081    -243.647    -253.514
  O     -414.794    -242.275    -253.212
  C     -414.812    -244.552    -252.289
  N     -414.047    -245.745    -252.622
  C     -412.671    -245.663    -252.402
  O     -412.167    -244.621    -251.964
  N     -411.883    -246.746    -252.712
  C     -412.430    -247.812    -253.215
  N     -411.612    -248.859    -253.506
  C     -413.881    -247.929    -253.488
  C     -414.623    -246.864    -253.177
  O     -420.622    -246.564    -251.982
  O     -419.567    -248.237    -253.619
  H     -414.956    -241.780    -254.043
  H     -421.348    -246.583    -252.631
  H     -414.286    -248.839    -253.905
  H     -415.692    -246.865    -253.346
  H     -414.259    -243.999    -251.521
  H     -414.482    -243.913    -254.385
  H     -416.725    -244.749    -254.373
  H     -417.142    -243.115    -251.808
  H     -410.624    -248.745    -253.314
  H     -418.644    -245.037    -251.234
  H     -411.941    -249.740    -253.875
  H     -419.237    -244.066    -252.601
  P     -417.171    -242.628    -255.950
  C     -419.158    -244.191    -256.372
  O     -418.683    -242.858    -256.425
  O     -416.475    -244.003    -256.373
  O     -416.474    -241.436    -256.525
  H     -416.301    -244.013    -257.329
  H     -420.237    -244.191    -256.561
  H     -418.982    -244.631    -255.387
  H     -418.667    -244.789    -257.144
  H     -418.569    -248.098    -249.289
  H     -420.072    -248.344    -250.145
  H     -419.504    -246.722    -249.825

 3  4  5  6  7  8  9  10  11  12  13  21  23  27  28  29  30  32 0
 6-311+G(2d,p)
 ****
 34  35 0
 6-311+G(2d,p)
 ****
 1  2  14  15  16  17  18  19  20  22  24  25  26 0
 3-21G
 ****
 31  33  36  37  38  39  40  41  42  43  44  45  46 0
 3-21G
 ****


