%nproc=1
%NoSave
%Mem=1900MB
#P OB98/GEN NMR

erre ene a

0 1
  C      490.418     172.971    -228.344
  O      489.121     172.424    -228.469
  H      490.460     173.562    -227.426
  H      490.641     173.624    -229.191
  H      491.163     172.175    -228.277
  P      488.784     171.542    -229.764
  C      488.818     173.374    -231.584
  O      488.015     172.517    -230.782
  C      487.970     174.509    -232.157
  O      488.789     175.417    -232.917
  C      486.852     174.053    -233.090
  O      485.723     173.612    -232.347
  C      486.582     175.340    -233.849
  O      485.816     176.239    -233.027
  C      488.007     175.894    -234.046
  N      489.900     177.439    -238.499
  C      489.178     178.143    -237.552
  N      488.894     179.429    -237.845
  N      488.763     177.622    -236.422
  C      489.056     176.309    -236.295
  C      489.748     175.502    -237.173
  C      490.259     176.107    -238.385
  O      490.925     175.526    -239.244
  N      489.771     174.204    -236.744
  C      489.140     174.230    -235.584
  N      488.676     175.487    -235.266
  O      488.072     170.250    -229.508
  O      490.204     171.323    -230.471
  H      484.935     175.845    -232.914
  H      490.625     170.497    -230.165
  H      490.184     177.891    -239.354
  H      488.993     173.375    -234.937
  H      488.030     176.992    -234.024
  H      486.016     175.180    -234.774
  H      489.053     179.837    -238.752
  H      487.203     173.286    -233.790
  H      488.321     179.942    -237.185
  H      487.562     175.085    -231.310
  H      489.238     172.770    -232.392
  H      489.641     173.795    -230.992
  P      485.303     172.061    -232.299
  C      484.207     171.825    -234.634
  O      484.001     171.950    -233.240
  O      485.133     171.501    -230.937
  O      486.409     171.321    -233.184
  H      487.224     171.097    -232.666
  H      483.261     171.762    -235.130
  H      484.774     170.940    -234.833
  H      484.742     172.679    -234.994

 6  7  8  9  10  11  12  13  14  15  26  29  33  34 0
 6-311+G(2d,p)
 ****
 36  38  39  40  41 0
 6-311+G(2d,p)
 ****
 1  2  3  4  5  16  17  18  19  20  21  22  23  24  25 0
 3-21G
 ****
 27  28  30  31  32  35  37  42  43  44  45  46  47 0
 3-21G
 ****
 48  49 0
 3-21G
 ****


