%nproc=1
%NoSave
%Mem=1900MB
#P OB98/GEN NMR

erre ene a

0 1
  C      401.885     387.480     239.309
  O      400.809     387.716     238.387
  P      399.344     388.140     238.875
  C      398.216     386.700     237.058
  O      398.327     387.996     237.644
  C      397.333     386.713     235.806
  O      395.994     387.135     236.131
  C      397.808     387.657     234.703
  O      398.875     387.077     233.979
  C      396.526     387.857     233.908
  O      396.304     386.747     233.019
  C      395.458     387.867     235.018
  N      391.632     391.257     235.265
  C      391.679     389.982     234.826
  N      392.734     389.145     234.789
  C      393.828     389.744     235.290
  C      393.939     391.045     235.767
  C      392.769     391.819     235.748
  N      392.727     393.124     236.180
  N      395.229     391.310     236.181
  C      395.887     390.184     235.971
  N      395.083     389.209     235.426
  O      399.286     389.462     239.564
  O      398.885     386.965     239.869
  H      395.445     386.886     232.586
  H      398.256     387.314     240.526
  H      390.740     389.578     234.460
  H      396.934     390.029     236.184
  H      394.546     387.350     234.703
  H      396.537     388.766     233.302
  H      398.116     388.613     235.138
  H      397.269     385.684     235.425
  H      397.792     386.019     237.805
  H      391.858     393.625     236.095
  H      393.578     393.566     236.492
  H      399.224     386.350     236.800
  P      400.324     387.757     233.996
  C      400.850     387.070     231.578
  O      401.236     386.965     232.944
  O      400.934     387.937     235.349
  O      400.093     389.163     233.270
  H      400.726     389.820     233.631
  H      400.019     386.384     231.380
  H      401.704     386.789     230.958
  H      400.552     388.096     231.337
  H      402.767     387.210     238.766
  H      401.618     386.685     239.973
  H      402.072     388.369     239.874

 3  4  5  6  7  8  9  10  11  12  22  25  29  30  31  32 0
 6-311+G(2d,p)
 ****
 33  36  37 0
 6-311+G(2d,p)
 ****
 1  2  13  14  15  16  17  18  19  20  21  23  24  26 0
 3-21G
 ****
 27  28  34  35  38  39  40  41  42  43  44  45  46  47  48 0
 3-21G
 ****


