%nproc=1
%NoSave
%Mem=1900MB
#P OB98/GEN NMR

erre ene a

0 1
  C     -586.880    -643.495     338.343
  O     -586.413    -644.014     337.085
  P     -584.883    -643.775     336.660
  C     -584.263    -646.315     336.588
  O     -584.347    -645.078     335.895
  C     -584.874    -647.431     335.744
  O     -586.315    -647.383     335.799
  C     -584.534    -647.363     334.263
  O     -583.213    -647.822     334.002
  C     -585.610    -648.258     333.661
  O     -585.243    -649.649     333.761
  C     -586.817    -647.954     334.569
  N     -587.797    -647.079     333.933
  C     -589.129    -647.298     334.259
  O     -589.497    -648.218     334.997
  N     -590.033    -646.460     333.681
  C     -589.757    -645.478     332.770
  O     -590.618    -644.765     332.265
  C     -588.338    -645.344     332.393
  C     -587.441    -646.143     332.986
  O     -584.121    -643.877     338.067
  O     -584.590    -642.460     336.001
  H     -585.920    -650.146     333.259
  H     -583.302    -643.338     338.044
  H     -591.011    -646.582     333.926
  H     -588.072    -644.595     331.660
  H     -586.389    -646.055     332.718
  H     -587.314    -648.882     334.861
  H     -585.790    -648.046     332.610
  H     -584.664    -646.343     333.897
  H     -584.555    -648.400     336.171
  H     -584.810    -646.236     337.532
  H     -583.209    -646.530     336.809
  P     -582.699    -647.729     332.481
  C     -580.627    -646.244     333.046
  O     -581.125    -647.486     332.583
  O     -583.320    -646.317     332.037
  O     -583.142    -648.891     331.644
  H     -583.342    -645.684     332.776
  H     -581.282    -645.806     333.804
  H     -580.522    -645.554     332.208
  H     -579.633    -646.412     333.484
  H     -587.914    -643.741     338.469
  H     -586.762    -642.432     338.356
  H     -586.311    -643.926     339.140

 3  4  5  6  7  8  9  10  11  12  13  23  28  29  30  31  32 0
 6-311+G(2d,p)
 ****
 33  34 0
 6-311+G(2d,p)
 ****
 1  2  14  15  16  17  18  19  20  21  22  24  25  26 0
 3-21G
 ****
 27  35  36  37  38  39  40  41  42  43  44  45 0
 3-21G
 ****


