%nproc=1
%NoSave
%Mem=1900MB
#P OB98/GEN NMR

erre ene a

0 1
  C      -86.396     129.758       8.217
  O      -85.675     130.633       7.347
  P      -84.924     130.018       6.071
  C      -86.632     129.896       4.142
  O      -85.578     130.640       4.739
  C      -87.619     130.829       3.425
  O      -87.976     131.954       4.284
  C      -87.038     131.418       2.132
  O      -88.078     131.609       1.155
  C      -86.559     132.789       2.569
  O      -86.425     133.679       1.461
  C      -87.650     133.165       3.570
  N      -88.699     137.852       5.361
  C      -89.360     137.051       4.494
  N      -89.033     135.808       4.082
  C      -87.899     135.392       4.675
  C      -87.121     136.094       5.587
  C      -87.559     137.385       5.927
  N      -86.870     138.209       6.788
  N      -86.027     135.346       5.975
  C      -86.116     134.235       5.270
  N      -87.246     134.202       4.498
  O      -84.770     128.533       6.063
  O      -83.492     130.742       6.117
  H      -85.666     133.376       0.931
  H      -82.798     130.089       5.906
  H      -90.270     137.469       4.070
  H      -85.387     133.435       5.273
  H      -88.563     133.508       3.068
  H      -85.582     132.702       3.062
  H      -86.238     130.825       1.681
  H      -88.546     130.277       3.221
  H      -87.155     129.318       4.907
  H      -87.196     139.162       6.882
  H      -85.949     137.933       7.098
  H      -86.206     129.160       3.450
  P      -88.068     130.589      -0.095
  C      -89.578     128.840       1.131
  O      -89.407     129.718       0.042
  O      -86.791     129.824      -0.227
  O      -88.355     131.574      -1.325
  H      -89.121     132.162      -1.204
  H      -90.598     128.445       1.107
  H      -89.430     129.361       2.082
  H      -88.874     128.004       1.054
  H      -86.834     130.326       9.011
  H      -85.727     129.030       8.626
  H      -87.168     129.263       7.665

 3  4  5  6  7  8  9  10  11  12  22  25  29  30  31  32 0
 6-311+G(2d,p)
 ****
 33  36  37 0
 6-311+G(2d,p)
 ****
 1  2  13  14  15  16  17  18  19  20  21  23  24  26 0
 3-21G
 ****
 27  28  34  35  38  39  40  41  42  43  44  45  46  47  48 0
 3-21G
 ****


