%nproc=1
%NoSave
%Mem=1900MB
#P OB98/GEN NMR

erre ene a

0 1
  C     -148.946     102.513      75.143
  O     -149.332     101.629      74.109
  H     -149.586     103.399      75.104
  H     -147.907     102.822      75.000
  H     -149.062     102.033      76.119
  P     -148.635     100.188      74.092
  C     -150.866      98.822      74.325
  O     -149.606      99.178      74.880
  C     -151.945      98.879      75.404
  O     -152.157     100.230      75.860
  C     -153.318      98.439      74.925
  O     -153.399      97.049      74.701
  C     -154.181      98.931      76.077
  O     -154.112      98.036      77.195
  C     -153.500     100.282      76.412
  N     -154.248     101.424      75.909
  C     -155.404     101.760      76.625
  O     -155.727     101.111      77.621
  N     -156.176     102.802      76.176
  C     -155.816     103.467      75.124
  N     -156.629     104.482      74.727
  C     -154.592     103.164      74.356
  C     -153.867     102.138      74.796
  O     -147.417     100.375      75.111
  O     -148.239      99.687      72.741
  H     -154.734      98.384      77.865
  H     -147.686     100.715      75.980
  H     -154.327     103.752      73.490
  H     -152.956     101.848      74.290
  H     -153.391     100.398      77.498
  H     -155.234      99.008      75.797
  H     -153.604      99.001      74.027
  H     -151.604      98.279      76.257
  H     -157.470     104.648      75.265
  H     -150.826      97.829      73.870
  H     -156.468     105.046      73.906
  H     -151.089      99.540      73.529
  P     -154.177      96.474      73.422
  C     -152.096      95.617      72.172
  O     -153.151      96.574      72.191
  O     -155.515      97.081      73.166
  O     -154.220      94.896      73.698
  H     -153.347      94.473      73.784
  H     -151.481      95.781      71.312
  H     -152.510      94.631      72.132
  H     -151.505      95.720      73.058

 6  7  8  9  10  11  12  13  14  15  16  26  30  31  32  33  35 0
 6-311+G(2d,p)
 ****
 37  38 0
 6-311+G(2d,p)
 ****
 1  2  3  4  5  17  18  19  20  21  22  23  24  25 0
 3-21G
 ****
 27  28  29  34  36  39  40  41  42  43  44  45  46 0
 3-21G
 ****


