%nproc=1
%NoSave
%Mem=1900MB
#P OB98/GEN NMR

erre ene a

0 1
  C      -10.330      73.635    -100.516
  O      -10.554      74.867    -101.205
  P      -10.032      76.195    -100.470
  C      -11.858      77.996    -100.863
  O      -10.608      77.461    -101.270
  C      -12.464      78.859    -101.971
  O      -12.718      78.110    -103.174
  C      -13.794      79.492    -101.585
  O      -13.572      80.633    -100.775
  C      -14.385      79.829    -102.947
  O      -13.884      81.089    -103.438
  C      -13.883      78.674    -103.828
  N      -17.944      77.327    -106.545
  C      -17.302      78.547    -106.458
  N      -17.798      79.543    -107.223
  N      -16.266      78.769    -105.692
  C      -15.878      77.682    -104.985
  C      -16.415      76.416    -105.008
  C      -17.563      76.184    -105.857
  O      -18.152      75.118    -105.986
  N      -15.712      75.558    -104.200
  C      -14.833      76.338    -103.597
  N      -14.850      77.621    -104.085
  O       -8.466      76.207    -100.799
  O      -10.286      76.199     -99.000
  H      -14.118      81.792    -102.806
  H       -7.957      76.019     -99.988
  H      -18.743      77.214    -107.145
  H      -14.150      76.019    -102.825
  H      -13.556      79.032    -104.812
  H      -15.472      79.927    -102.906
  H      -18.590      79.442    -107.837
  H      -14.426      78.757    -101.072
  H      -17.336      80.443    -107.179
  H      -11.736      79.646    -102.210
  H      -11.733      78.593     -99.958
  H      -12.527      77.168    -100.603
  P      -14.174      80.626     -99.290
  C      -16.050      82.415     -99.388
  O      -14.732      82.095     -98.990
  O      -12.868      80.514     -98.369
  O      -15.124      79.509     -99.012
  H      -13.023      79.862     -97.660
  H      -16.451      83.168     -98.705
  H      -16.702      81.538     -99.372
  H      -16.030      82.830    -100.399
  H      -10.718      72.825    -101.098
  H      -10.825      73.662     -99.568
  H       -9.280      73.496    -100.366

 3  4  5  6  7  8  9  10  11  12  23  26  30  31 0
 6-311+G(2d,p)
 ****
 33  35  36  37  38 0
 6-311+G(2d,p)
 ****
 1  2  13  14  15  16  17  18  19  20  21  22  24  25 0
 3-21G
 ****
 27  28  29  32  34  39  40  41  42  43  44  45  46  47  48  49 0
 3-21G
 ****


