%nproc=1
%NoSave
%Mem=1900MB
#P OB98/GEN NMR

erre ene a

0 1
  C       84.946      -3.599    -120.734
  O       86.126      -2.831    -120.863
  P       87.433      -3.425    -121.575
  C       88.469      -4.026    -119.292
  O       88.051      -4.513    -120.560
  C       89.699      -4.801    -118.802
  O       89.323      -6.194    -118.590
  C       90.866      -4.778    -119.812
  O       92.116      -4.348    -119.271
  C       90.849      -6.188    -120.379
  O       92.070      -6.587    -120.973
  C       90.368      -7.001    -119.170
  N       89.902      -8.334    -119.542
  C       90.761      -9.404    -119.279
  O       91.865      -9.295    -118.750
  N       90.339     -10.630    -119.705
  C       89.220     -10.879    -120.454
  O       88.952     -11.988    -120.882
  C       88.372      -9.710    -120.733
  C       88.735      -8.516    -120.256
  O       88.410      -2.414    -122.058
  O       86.825      -4.358    -122.729
  H       92.004      -6.423    -121.935
  H       86.252      -5.079    -122.416
  H       90.946     -11.414    -119.520
  H       87.489      -9.874    -121.333
  H       88.128      -7.632    -120.450
  H       91.153      -7.104    -118.419
  H       90.084      -6.226    -121.171
  H       90.673      -4.057    -120.625
  H       90.003      -4.369    -117.837
  H       87.651      -4.161    -118.573
  H       88.676      -2.953    -119.351
  P       93.164      -3.392    -120.010
  C       94.384      -5.352    -121.227
  O       93.663      -4.140    -121.340
  O       94.249      -2.847    -119.158
  O       92.254      -2.208    -120.588
  H       92.774      -1.390    -120.643
  H       95.049      -5.444    -122.090
  H       93.682      -6.191    -121.226
  H       94.984      -5.374    -120.313
  H       84.198      -3.021    -120.233
  H       85.155      -4.482    -120.166
  H       84.592      -3.875    -121.705

 3  4  5  6  7  8  9  10  11  12  13  23  28  29  30  31  32 0
 6-311+G(2d,p)
 ****
 33  34 0
 6-311+G(2d,p)
 ****
 1  2  14  15  16  17  18  19  20  21  22  24  25  26  27 0
 3-21G
 ****
 35  36  37  38  39  40  41  42  43  44  45 0
 3-21G
 ****


