%nproc=1
%NoSave
%Mem=1900MB
#P OB98/GEN NMR

erre ene a

0 1
  C     -280.623      67.914    -326.409
  O     -280.507      67.685    -327.818
  P     -279.390      68.388    -328.726
  C     -279.341      66.201    -330.093
  O     -279.283      67.618    -330.130
  C     -280.448      65.649    -330.997
  O     -281.745      66.081    -330.535
  C     -280.364      66.097    -332.455
  O     -279.348      65.402    -333.151
  C     -281.784      65.806    -332.930
  O     -281.936      64.423    -333.284
  C     -282.620      66.147    -331.684
  N     -283.264      67.449    -331.776
  C     -284.319      67.558    -332.695
  O     -284.609      66.603    -333.424
  N     -284.981      68.758    -332.798
  C     -284.589      69.775    -332.095
  N     -285.295      70.927    -332.231
  C     -283.439      69.724    -331.172
  C     -282.832      68.541    -331.067
  O     -278.079      68.577    -328.040
  O     -280.025      69.809    -329.129
  H     -281.722      64.354    -334.233
  H     -279.302      70.457    -329.234
  H     -283.126      70.601    -330.627
  H     -281.981      68.419    -330.410
  H     -283.392      65.382    -331.516
  H     -282.060      66.397    -333.807
  H     -280.189      67.184    -332.492
  H     -280.415      64.553    -330.938
  H     -286.083      70.929    -332.861
  H     -279.537      65.889    -329.054
  H     -285.080      71.784    -331.723
  H     -278.367      65.797    -330.396
  P     -277.886      66.051    -333.275
  C     -276.298      64.222    -332.417
  O     -276.859      64.851    -333.553
  O     -277.491      66.985    -332.180
  O     -277.930      66.809    -334.683
  H     -277.348      67.594    -334.638
  H     -275.953      63.218    -332.704
  H     -277.030      64.142    -331.609
  H     -275.439      64.797    -332.063
  H     -281.437      67.339    -326.020
  H     -280.803      68.953    -326.230
  H     -279.715      67.621    -325.924

 3  4  5  6  7  8  9  10  11  12  13  23  27  28  29  30  32 0
 6-311+G(2d,p)
 ****
 34  35 0
 6-311+G(2d,p)
 ****
 1  2  14  15  16  17  18  19  20  21  22  24  25  26 0
 3-21G
 ****
 31  33  36  37  38  39  40  41  42  43  44  45  46 0
 3-21G
 ****


