%nproc=1
%NoSave
%Mem=1900MB
#P OB98/GEN NMR

erre ene a

0 1
  C       77.074     107.795     -21.177
  O       76.949     108.124     -19.807
  H       78.126     107.818     -21.476
  H       76.686     106.786     -21.332
  H       76.496     108.494     -21.789
  P       77.440     109.589     -19.374
  C       79.736     110.650     -18.792
  O       79.043     109.518     -19.295
  C       81.201     110.597     -19.214
  O       81.313     110.705     -20.648
  C       82.069     111.720     -18.649
  O       82.459     111.463     -17.308
  C       83.258     111.662     -19.596
  O       84.129     110.579     -19.216
  C       82.582     111.347     -20.939
  N       84.542     114.482     -24.477
  C       85.012     113.343     -23.922
  N       84.421     112.553     -23.001
  C       83.212     113.034     -22.668
  C       82.590     114.168     -23.164
  C       83.312     114.920     -24.109
  N       82.850     116.122     -24.621
  N       81.358     114.350     -22.570
  C       81.244     113.351     -21.719
  N       82.337     112.525     -21.749
  O       76.985     109.677     -17.839
  O       76.880     110.712     -20.182
  H       83.558     109.812     -19.028
  H       76.133     110.148     -17.783
  H       85.991     113.025     -24.261
  H       80.400     113.188     -21.065
  H       83.168     110.643     -21.543
  H       83.857     112.578     -19.591
  H       81.578     112.694     -18.749
  H       81.602     109.616     -18.924
  H       79.675     110.660     -17.698
  H       83.593     116.761     -24.886
  H       82.065     116.519     -24.114
  H       79.261     111.555     -19.184
  P       83.131     112.664     -16.483
  C       85.324     114.020     -16.681
  O       84.608     112.860     -17.081
  O       83.384     112.006     -15.046
  O       82.306     113.901     -16.374
  H       82.948     112.545     -14.355
  H       86.286     114.025     -17.150
  H       85.446     114.015     -15.618
  H       84.780     114.894     -16.974

 6  7  8  9  10  11  12  13  14  15  25  28  32  33  34  35 0
 6-311+G(2d,p)
 ****
 36  39  40 0
 6-311+G(2d,p)
 ****
 1  2  3  4  5  16  17  18  19  20  21  22  23  24 0
 3-21G
 ****
 26  27  29  30  31  37  38  41  42  43  44  45  46  47  48 0
 3-21G
 ****


