%nproc=1
%NoSave
%Mem=1900MB
#P OB98/GEN NMR

erre ene a

0 1
  C       13.526     -54.997     -28.319
  O       14.076     -55.208     -27.035
  H       13.682     -55.899     -28.917
  H       14.019     -54.158     -28.818
  H       12.452     -54.810     -28.246
  P       14.080     -53.983     -25.998
  C       15.321     -51.710     -25.946
  O       15.047     -52.893     -26.679
  C       16.317     -50.837     -26.706
  O       15.793     -50.454     -27.994
  C       16.666     -49.519     -26.022
  O       17.528     -49.673     -24.907
  C       17.333     -48.791     -27.177
  O       18.660     -49.311     -27.371
  C       16.407     -49.184     -28.354
  N       15.382     -48.181     -28.633
  C       14.742     -48.267     -29.876
  O       15.046     -49.150     -30.676
  N       13.796     -47.324     -30.200
  C       13.527     -46.369     -29.366
  N       12.617     -45.434     -29.756
  C       14.164     -46.251     -28.040
  C       15.074     -47.176     -27.743
  O       14.397     -54.321     -24.577
  O       12.645     -53.300     -26.184
  H       18.565     -50.201     -27.755
  H       12.593     -52.541     -25.554
  H       13.909     -45.431     -27.386
  H       15.598     -47.146     -26.794
  H       16.990     -49.357     -29.266
  H       17.426     -47.714     -27.013
  H       15.759     -48.973     -25.742
  H       17.213     -51.444     -26.891
  H       12.234     -45.523     -30.687
  H       15.718     -51.998     -24.969
  H       12.562     -44.531     -29.299
  H       14.401     -51.136     -25.800
  P       18.074     -48.342     -24.191
  C       19.434     -46.264     -24.979
  O       18.973     -47.573     -25.274
  O       19.142     -48.912     -23.148
  O       17.035     -47.484     -23.540
  H       18.739     -49.046     -22.268
  H       20.015     -45.897     -25.799
  H       20.039     -46.289     -24.097
  H       18.596     -45.618     -24.818

 6  7  8  9  10  11  12  13  14  15  16  26  30  31  32  33  35 0
 6-311+G(2d,p)
 ****
 37  38 0
 6-311+G(2d,p)
 ****
 1  2  3  4  5  17  18  19  20  21  22  23  24  25 0
 3-21G
 ****
 27  28  29  34  36  39  40  41  42  43  44  45  46 0
 3-21G
 ****


