%nproc=1
%NoSave
%Mem=1900MB
#P OB98/GEN NMR

erre ene a

0 1
  C      574.555     461.501     309.230
  O      574.238     461.550     307.834
  P      573.056     460.634     307.265
  C      573.640     460.272     304.782
  O      572.830     460.974     305.712
  C      573.834     461.097     303.493
  O      572.545     461.483     302.950
  C      574.646     462.381     303.720
  O      575.730     462.527     302.804
  C      573.603     463.478     303.686
  O      574.138     464.747     303.349
  C      572.540     462.906     302.743
  N      571.220     463.500     302.968
  C      570.931     464.661     302.268
  O      571.749     465.231     301.539
  N      569.684     465.193     302.465
  C      568.750     464.727     303.342
  O      567.665     465.263     303.526
  C      569.137     463.525     304.108
  C      570.337     462.981     303.893
  O      571.815     460.597     308.092
  O      573.730     459.176     307.196
  H      574.931     464.911     303.917
  H      573.058     458.521     307.464
  H      569.447     466.025     301.945
  H      568.432     463.144     304.840
  H      570.650     462.111     304.447
  H      572.806     463.094     301.693
  H      573.161     463.566     304.692
  H      575.137     462.372     304.706
  H      574.336     460.455     302.767
  H      573.158     459.330     304.523
  H      574.598     460.016     305.251
  P      577.285     462.394     303.192
  C      578.466     464.038     301.571
  O      578.157     462.692     301.885
  O      577.656     461.152     303.933
  O      577.533     463.683     304.114
  H      578.110     463.440     304.859
  H      578.721     464.099     300.516
  H      579.326     464.357     302.167
  H      577.620     464.692     301.766
  H      575.363     462.171     309.436
  H      574.841     460.505     309.496
  H      573.698     461.791     309.801

 3  4  5  6  7  8  9  10  11  12  13  23  28  29  30  31  32 0
 6-311+G(2d,p)
 ****
 33  34 0
 6-311+G(2d,p)
 ****
 1  2  14  15  16  17  18  19  20  21  22  24  25  26  27 0
 3-21G
 ****
 35  36  37  38  39  40  41  42  43  44  45 0
 3-21G
 ****


