%nproc=1
%NoSave
%Mem=1900MB
#P OB98/GEN NMR

erre ene a

0 1
  C      917.165    -511.135     171.966
  O      915.823    -510.867     171.596
  H      917.322    -512.215     171.937
  H      917.349    -510.774     172.982
  H      917.851    -510.652     171.264
  P      915.384    -509.321     171.558
  C      915.163    -509.154     168.963
  O      915.866    -508.758     170.137
  C      915.827    -508.556     167.715
  O      917.234    -508.966     167.696
  C      915.209    -509.038     166.391
  O      915.394    -508.003     165.417
  C      916.100    -510.225     166.042
  O      915.918    -510.623     164.702
  C      917.460    -509.645     166.438
  N      920.454    -512.981     163.963
  C      919.556    -512.067     163.515
  N      918.809    -511.208     164.237
  C      919.063    -511.334     165.546
  C      919.957    -512.199     166.158
  C      920.670    -513.054     165.289
  N      921.580    -513.991     165.754
  N      919.954    -512.038     167.526
  C      919.069    -511.072     167.748
  N      918.496    -510.628     166.589
  O      916.393    -508.632     172.599
  O      913.957    -509.047     171.899
  H      916.446    -511.437     164.512
  H      915.967    -508.563     173.476
  H      919.427    -512.034     162.439
  H      918.797    -510.683     168.722
  H      917.810    -508.890     165.709
  H      915.857    -511.088     166.665
  H      914.147    -509.276     166.474
  H      915.816    -507.461     167.795
  H      914.134    -508.798     169.036
  H      915.167    -510.250     168.886
  H      922.040    -514.581     165.077
  H      921.738    -514.081     166.742
  P      914.132    -507.092     164.992
  C      914.890    -504.989     166.352
  O      913.895    -505.969     166.115
  O      912.893    -508.097     165.257
  O      914.129    -506.615     163.572
  H      912.160    -507.868     164.662
  H      914.563    -504.329     167.128
  H      915.060    -504.429     165.456
  H      915.799    -505.468     166.651

 6  7  8  9  10  11  12  13  14  15  25  28  32  33  34  35 0
 6-311+G(2d,p)
 ****
 36  37  40 0
 6-311+G(2d,p)
 ****
 1  2  3  4  5  16  17  18  19  20  21  22  23  24 0
 3-21G
 ****
 26  27  29  30  31  38  39 41  42  43  44  45  46  47  48 0
 3-21G
 ****


