%nproc=1
%NoSave
%Mem=1900MB
#P OB98/GEN NMR

erre ene a

0 1
  C      -18.556     -18.763      -3.358
  O      -18.562     -17.351      -3.312
  H      -18.100     -19.083      -4.298
  H      -19.579     -19.148      -3.315
  H      -17.972     -19.164      -2.526
  P      -19.247     -16.670      -2.032
  C      -21.408     -16.154      -3.381
  O      -20.834     -16.785      -2.244
  C      -22.810     -16.703      -3.618
  O      -22.757     -18.141      -3.762
  C      -23.779     -16.446      -2.472
  O      -24.279     -15.121      -2.478
  C      -24.852     -17.482      -2.765
  O      -25.798     -17.002      -3.735
  C      -24.030     -18.662      -3.329
  N      -23.880     -19.741      -2.358
  C      -24.797     -20.782      -2.465
  O      -25.687     -20.812      -3.314
  N      -24.683     -21.777      -1.534
  C      -23.786     -21.813      -0.505
  O      -23.784     -22.699       0.340
  C      -22.831     -20.693      -0.451
  C      -22.927     -19.718      -1.359
  O      -18.946     -15.112      -2.246
  O      -18.754     -17.164      -0.712
  H      -18.216     -14.832      -1.663
  H      -26.282     -16.272      -3.303
  H      -25.346     -22.535      -1.588
  H      -22.101     -20.693       0.350
  H      -22.247     -18.872      -1.326
  H      -24.520     -19.076      -4.220
  H      -25.420     -17.736      -1.869
  H      -23.306     -16.689      -1.512
  H      -23.196     -16.279      -4.554
  H      -20.790     -16.358      -4.263
  H      -21.434     -15.073      -3.213
  P      -24.437     -14.355      -1.077
  C      -26.951     -15.088      -0.855
  O      -25.648     -15.068      -0.302
  O      -25.048     -12.958      -1.555
  O      -23.168     -14.257      -0.300
  H      -25.655     -13.046      -2.310
  H      -27.612     -15.606      -0.192
  H      -26.930     -15.588      -1.801
  H      -27.296     -14.084      -0.990

 6  7  8  9  10  11  12  13  14  15  16  27  31  32  33  34  35 0
 6-311+G(2d,p)
 ****
 36  37 0
 6-311+G(2d,p)
 ****
 1  2  3  4  5  17  18  19  20  21  22  23  24  25 0
 3-21G
 ****
 26  28  29  30  38  39  40  41  42  43  44  45 0
 3-21G
 ****


