%nproc=1
%NoSave
%Mem=1900MB
#P OB98/GEN NMR

erre ene a

0 1
  C      698.762    -384.034    -217.325
  O      699.294    -383.521    -218.529
  H      698.401    -385.050    -217.503
  H      697.921    -383.413    -217.006
  H      699.525    -384.060    -216.539
  P      700.231    -382.223    -218.427
  C      702.343    -383.712    -218.650
  O      701.658    -382.728    -217.891
  C      703.628    -384.136    -217.936
  O      703.268    -384.921    -216.761
  C      704.577    -384.992    -218.797
  O      705.924    -384.647    -218.479
  C      704.306    -386.396    -218.287
  O      705.403    -387.281    -218.547
  C      704.064    -386.122    -216.813
  N      704.363    -389.236    -212.877
  C      705.067    -388.080    -213.173
  N      706.049    -387.725    -212.313
  N      704.833    -387.335    -214.224
  C      703.814    -387.795    -214.985
  C      703.042    -388.914    -214.810
  C      703.323    -389.743    -213.656
  O      702.751    -390.785    -213.352
  N      702.148    -389.066    -215.845
  C      702.391    -388.042    -216.647
  N      703.392    -387.242    -216.172
  O      699.610    -381.444    -217.170
  O      700.273    -381.364    -219.649
  H      705.469    -387.408    -219.511
  H      698.973    -380.773    -217.482
  H      704.595    -389.779    -212.069
  H      701.896    -387.847    -217.587
  H      704.992    -385.945    -216.254
  H      703.410    -386.806    -218.775
  H      706.268    -388.229    -211.468
  H      704.410    -384.885    -219.878
  H      706.548    -386.862    -212.491
  H      704.144    -383.239    -217.574
  H      702.605    -383.293    -219.630
  H      701.691    -384.574    -218.797
  P      706.598    -383.422    -219.265
  C      706.763    -381.901    -217.156
  O      706.263    -382.069    -218.480
  O      705.700    -383.311    -220.584
  O      708.039    -383.632    -219.597
  H      706.260    -383.031    -221.340
  H      706.452    -380.951    -216.775
  H      707.832    -381.948    -217.170
  H      706.380    -382.679    -216.529

 6  7  8  9  10  11  12  13  14  15  26  29  33  34 0
 6-311+G(2d,p)
 ****
 36  38  39  40  41 0
 6-311+G(2d,p)
 ****
 1  2  3  4  5  16  17  18  19  20  21  22  23  24  25 0
 3-21G
 ****
 27  28  30  31  32  35  37  42  43  44  45  46  47 0
 3-21G
 ****
 48  49 0
 3-21G
 ****


