%nproc=1
%NoSave
%Mem=1900MB
#P OB98/GEN NMR

erre ene a

0 1
  C       -3.062    -767.076     226.529
  O       -4.001    -767.290     227.575
  P       -5.068    -768.493     227.492
  C       -4.408    -769.216     229.890
  O       -4.530    -769.599     228.514
  C       -5.622    -769.714     230.665
  O       -5.795    -771.125     230.445
  C       -5.514    -769.541     232.172
  O       -5.736    -768.192     232.553
  C       -6.552    -770.541     232.661
  O       -7.882    -769.969     232.544
  C       -6.397    -771.682     231.637
  N       -5.596    -772.792     232.158
  C       -6.285    -773.792     232.851
  O       -7.500    -773.732     233.010
  N       -5.566    -774.870     233.340
  C       -4.280    -774.933     233.158
  N       -3.637    -776.042     233.604
  C       -3.514    -773.869     232.479
  C       -4.217    -772.847     231.999
  O       -5.319    -768.997     226.102
  O       -6.373    -767.928     228.232
  H       -7.971    -769.685     231.606
  H       -6.984    -767.442     227.627
  H       -2.441    -773.969     232.360
  H       -3.734    -772.045     231.467
  H       -7.372    -772.074     231.345
  H       -6.418    -770.845     233.695
  H       -4.515    -769.844     232.526
  H       -6.518    -769.192     230.289
  H       -4.234    -776.817     233.898
  H       -4.375    -768.115     229.929
  H       -2.720    -776.298     233.259
  H       -3.485    -769.616     230.293
  P       -5.027    -767.673     233.896
  C       -3.932    -765.587     232.836
  O       -3.731    -766.841     233.433
  O       -4.444    -769.006     234.546
  O       -5.944    -766.935     234.841
  H       -5.023    -769.324     235.273
  H       -2.969    -765.049     232.801
  H       -4.636    -764.971     233.424
  H       -4.315    -765.697     231.816
  H       -2.445    -766.235     226.770
  H       -3.584    -766.885     225.615
  H       -2.450    -767.946     226.416

 3  4  5  6  7  8  9  10  11  12  13  23  27  28  29  30  32 0
 6-311+G(2d,p)
 ****
 34  35 0
 6-311+G(2d,p)
 ****
 1  2  14  15  16  17  18  19  20  21  22  24  25  26 0
 3-21G
 ****
 31  33  36  37  38  39  40  41  42  43  44  45  46 0
 3-21G
 ****


