%nproc=1
%NoSave
%Mem=1900MB
#P OB98/GEN NMR

erre ene a

0 1
  C      348.080    -300.594    -473.260
  O      347.973    -299.821    -472.062
  P      346.565    -299.767    -471.305
  C      347.111    -301.301    -469.312
  O      346.365    -301.145    -470.513
  C      346.258    -300.955    -468.093
  O      345.052    -301.742    -468.045
  C      346.967    -301.221    -466.772
  O      347.948    -300.231    -466.518
  C      345.791    -301.231    -465.804
  O      345.419    -299.899    -465.427
  C      344.674    -301.875    -466.654
  N      344.411    -303.264    -466.304
  C      344.182    -303.520    -464.947
  O      344.244    -302.605    -464.124
  N      343.899    -304.806    -464.565
  C      343.858    -305.754    -465.447
  N      343.571    -307.010    -465.009
  C      344.109    -305.528    -466.884
  C      344.384    -304.272    -467.237
  O      345.402    -299.332    -472.132
  O      346.843    -298.722    -470.118
  H      344.788    -299.993    -464.686
  H      346.012    -298.259    -469.901
  H      344.062    -306.348    -467.585
  H      344.582    -304.020    -468.272
  H      343.739    -301.321    -466.536
  H      346.032    -301.772    -464.880
  H      347.438    -302.212    -466.796
  H      345.984    -299.895    -468.160
  H      343.418    -307.134    -464.014
  H      347.996    -300.657    -469.348
  H      343.470    -307.801    -465.624
  H      347.478    -302.335    -469.256
  P      349.370    -300.719    -465.954
  C      350.597    -301.417    -468.128
  O      349.934    -301.839    -466.953
  O      348.964    -301.559    -464.651
  O      350.321    -299.620    -465.611
  H      349.655    -301.456    -463.969
  H      351.181    -302.251    -468.520
  H      351.271    -300.580    -467.928
  H      349.860    -301.120    -468.880
  H      349.078    -300.527    -473.640
  H      347.394    -300.217    -473.990
  H      347.848    -301.616    -473.047

 3  4  5  6  7  8  9  10  11  12  13  23  27  28  29  30  32 0
 6-311+G(2d,p)
 ****
 34  35 0
 6-311+G(2d,p)
 ****
 1  2  14  15  16  17  18  19  20  21  22  24  25  26 0
 3-21G
 ****
 31  33  36  37  38  39  40  41  42  43  44  45  46 0
 3-21G
 ****


