%nproc=1
%NoSave
%Mem=1900MB
#P OB98/GEN NMR

erre ene a

0 1
  C      135.020     -17.589    -335.633
  O      135.433     -18.229    -334.432
  P      134.342     -18.447    -333.277
  C      134.469     -16.060    -332.274
  O      133.683     -17.015    -332.975
  C      133.628     -15.296    -331.251
  O      132.691     -14.445    -331.960
  C      132.812     -16.183    -330.306
  O      132.732     -15.501    -329.042
  C      131.435     -16.193    -330.945
  O      130.409     -16.549    -330.023
  C      131.368     -14.760    -331.467
  N      126.375     -14.432    -332.556
  C      127.036     -14.554    -331.382
  N      128.367     -14.635    -331.173
  C      129.031     -14.578    -332.341
  C      128.499     -14.493    -333.612
  C      127.096     -14.411    -333.706
  N      126.423     -14.275    -334.897
  N      129.504     -14.487    -334.561
  C      130.626     -14.574    -333.874
  N      130.389     -14.607    -332.528
  O      135.248     -18.726    -331.987
  O      133.378     -19.563    -333.514
  H      129.596     -16.742    -330.526
  H      135.147     -19.657    -331.704
  H      126.407     -14.584    -330.493
  H      131.618     -14.617    -334.297
  H      131.119     -14.040    -330.675
  H      131.413     -16.918    -331.773
  H      133.222     -17.192    -330.169
  H      134.295     -14.638    -330.680
  H      134.879     -15.348    -332.994
  H      125.438     -14.091    -334.868
  H      126.958     -14.068    -335.736
  H      135.302     -16.569    -331.773
  P      133.060     -16.365    -327.734
  C      130.542     -16.617    -327.151
  O      131.764     -17.265    -327.438
  O      133.039     -15.275    -326.558
  O      134.363     -17.100    -327.791
  H      133.621     -15.561    -325.827
  H      129.717     -17.217    -327.542
  H      130.496     -15.615    -327.593
  H      130.435     -16.530    -326.058
  H      135.852     -17.516    -336.302
  H      134.656     -16.608    -335.408
  H      134.241     -18.161    -336.093

 3  4  5  6  7  8  9  10  11  12  22  25  29  30  31  32 0
 6-311+G(2d,p)
 ****
 33  36  37 0
 6-311+G(2d,p)
 ****
 1  2  13  14  15  16  17  18  19  20  21  23  24  26 0
 3-21G
 ****
 27  28  34  35  38  39  40  41  42  43  44  45  46  47  48 0
 3-21G
 ****


