%nproc=1
%NoSave
%Mem=1900MB
#P OB98/GEN NMR

erre ene a

0 1
  C      467.278    -277.251     -20.087
  O      467.401    -278.366     -19.195
  P      467.797    -279.791     -19.815
  C      469.096    -281.846     -18.886
  O      468.195    -280.780     -18.619
  C      469.171    -282.800     -17.688
  O      469.919    -282.225     -16.594
  C      467.814    -283.158     -17.109
  O      467.187    -284.196     -17.846
  C      468.206    -283.656     -15.726
  O      468.685    -285.015     -15.814
  C      469.356    -282.716     -15.356
  N      468.564    -281.031     -10.581
  C      468.944    -282.236     -11.060
  N      469.115    -282.611     -12.348
  C      468.868    -281.587     -13.177
  C      468.471    -280.305     -12.840
  C      468.318    -280.036     -11.467
  N      467.930    -278.808     -10.984
  N      468.299    -279.531     -13.965
  C      468.604    -280.328     -14.969
  N      468.941    -281.583     -14.545
  O      469.201    -279.495     -20.530
  O      466.797    -280.327     -20.784
  H      469.101    -285.225     -14.961
  H      469.279    -280.037     -21.338
  H      469.137    -282.999     -10.316
  H      468.594    -280.040     -16.013
  H      470.156    -283.229     -14.806
  H      467.366    -283.664     -15.025
  H      467.178    -282.270     -17.017
  H      469.686    -283.711     -18.015
  H      470.091    -281.449     -19.111
  H      467.868    -278.677      -9.987
  H      467.764    -278.051     -11.640
  H      468.768    -282.372     -19.788
  P      465.706    -283.913     -18.403
  C      463.845    -285.458     -19.348
  O      465.219    -285.287     -19.063
  O      465.973    -282.948     -19.654
  O      464.782    -283.299     -17.406
  H      465.211    -282.345     -19.775
  H      463.734    -286.285     -20.051
  H      463.418    -284.558     -19.791
  H      463.307    -285.704     -18.425
  H      467.011    -276.377     -19.531
  H      466.519    -277.457     -20.813
  H      468.212    -277.087     -20.583

 3  4  5  6  7  8  9  10  11  12  22  25  29  30  31  32 0
 6-311+G(2d,p)
 ****
 33  36  37 0
 6-311+G(2d,p)
 ****
 1  2  13  14  15  16  17  18  19  20  21  23  24  26 0
 3-21G
 ****
 27  28  34  35  38  39  40  41  42  43  44  45  46  47  48 0
 3-21G
 ****


