%nproc=1
%NoSave
%Mem=1900MB
#P OB98/GEN NMR

erre ene a

0 1
  C      -48.660     244.340    -211.783
  O      -47.495     243.780    -211.205
  H      -48.443     244.618    -212.819
  H      -48.953     245.238    -211.233
  H      -49.479     243.614    -211.775
  P      -47.670     243.096    -209.767
  C      -49.313     241.221    -210.582
  O      -49.101     242.358    -209.757
  C      -50.305     240.268    -209.913
  O      -51.540     240.941    -209.604
  C      -50.740     239.102    -210.787
  O      -49.724     238.135    -210.949
  C      -51.943     238.597    -210.003
  O      -51.556     237.706    -208.951
  C      -52.534     239.906    -209.426
  N      -53.804     240.244    -210.044
  C      -54.879     240.410    -209.155
  O      -54.701     240.287    -207.943
  N      -56.119     240.673    -209.671
  C      -56.289     240.736    -210.954
  N      -57.552     240.967    -211.400
  C      -55.184     240.568    -211.927
  C      -53.981     240.325    -211.405
  O      -47.903     244.359    -208.812
  O      -46.539     242.216    -209.349
  H      -50.803     238.133    -208.489
  H      -48.575     244.980    -209.141
  H      -55.374     240.642    -212.987
  H      -53.113     240.186    -212.044
  H      -52.695     239.811    -208.341
  H      -52.640     238.045    -210.644
  H      -51.094     239.473    -211.758
  H      -49.857     239.913    -208.971
  H      -58.293     241.019    -210.705
  H      -48.368     240.705    -210.782
  H      -57.815     240.958    -212.376
  H      -49.710     241.570    -211.540
  P      -49.514     237.375    -212.343
  C      -47.992     239.307    -213.119
  O      -49.125     238.502    -213.425
  O      -50.633     236.479    -212.761
  O      -48.117     236.617    -212.135
  H      -47.360     237.200    -211.942
  H      -47.834     240.014    -213.906
  H      -47.128     238.684    -213.020
  H      -48.163     239.828    -212.200

 6  7  8  9  10  11  12  13  14  15  16  26  30  31  32  33  35 0
 6-311+G(2d,p)
 ****
 37  38 0
 6-311+G(2d,p)
 ****
 1  2  3  4  5  17  18  19  20  21  22  23  24  25 0
 3-21G
 ****
 27  28  29  34  36  39  40  41  42  43  44  45  46 0
 3-21G
 ****


