%nproc=1
%NoSave
%Mem=1900MB
#P OB98/GEN NMR

erre ene a

0 1
  C       76.326     -48.605     149.646
  O       76.390     -49.473     148.532
  H       75.278     -48.476     149.931
  H       76.744     -47.628     149.391
  H       76.873     -49.034     150.489
  P       77.847     -49.706     147.895
  C       77.584     -47.347     146.810
  O       78.373     -48.215     147.610
  C       78.453     -46.712     145.728
  O       79.512     -45.929     146.321
  C       79.151     -47.717     144.820
  O       78.292     -48.254     143.826
  C       80.232     -46.838     144.219
  O       79.656     -45.983     143.216
  C       80.676     -46.023     145.456
  N       81.798     -46.630     146.172
  C       83.080     -46.189     145.821
  O       83.231     -45.339     144.945
  N       84.167     -46.745     146.451
  C       83.994     -47.655     147.358
  N       85.106     -48.182     147.938
  C       82.663     -48.137     147.769
  C       81.624     -47.591     147.144
  O       77.532     -50.251     146.423
  O       78.778     -50.564     148.683
  H       79.618     -46.499     142.391
  H       78.369     -50.307     145.901
  H       82.569     -48.907     148.523
  H       80.614     -47.898     147.393
  H       80.954     -45.001     145.172
  H       81.030     -47.408     143.738
  H       79.630     -48.518     145.397
  H       77.822     -46.023     145.150
  H       86.006     -47.877     147.591
  H       77.159     -46.573     147.457
  H       85.078     -49.013     148.516
  H       76.770     -47.907     146.338
  P       78.554     -49.766     143.353
  C       79.160     -49.017     140.941
  O       79.574     -49.700     142.116
  O       77.170     -50.173     142.666
  O       78.938     -50.713     144.448
  H       76.935     -51.100     142.866
  H       79.941     -49.058     140.211
  H       78.947     -47.996     141.178
  H       78.280     -49.483     140.549

 6  7  8  9  10  11  12  13  14  15  16  26  30  31  32  33  35 0
 6-311+G(2d,p)
 ****
 37  38 0
 6-311+G(2d,p)
 ****
 1  2  3  4  5  17  18  19  20  21  22  23  24  25 0
 3-21G
 ****
 27  28  29  34  36  39  40  41  42  43  44  45  46 0
 3-21G
 ****


