%nproc=1
%NoSave
%Mem=1900MB
#P OB98/GEN NMR

erre ene a

0 1
  C      -82.825      22.774     112.463
  O      -82.465      22.605     111.109
  P      -81.172      21.740     110.718
  C      -78.627      21.953     111.051
  O      -79.906      22.535     111.304
  C      -77.667      23.020     110.522
  O      -77.572      24.138     111.436
  C      -76.231      22.532     110.365
  O      -75.983      21.546     109.396
  C      -75.491      23.856     110.219
  O      -75.573      24.352     108.883
  C      -76.289      24.764     111.189
  N      -75.552      25.013     112.433
  C      -74.403      25.780     112.314
  O      -74.000      26.247     111.252
  N      -73.700      25.987     113.475
  C      -74.008      25.467     114.698
  O      -73.307      25.656     115.685
  C      -75.223      24.643     114.752
  C      -75.934      24.453     113.635
  O      -81.061      21.383     109.273
  O      -81.260      20.476     111.698
  H      -75.207      23.667     108.294
  H      -81.246      20.693     112.645
  H      -72.860      26.536     113.407
  H      -75.499      24.220     115.715
  H      -76.839      23.851     113.655
  H      -76.490      25.731     110.717
  H      -74.424      23.748     110.457
  H      -75.918      22.097     111.321
  H      -78.068      23.405     109.579
  H      -78.740      21.166     110.296
  H      -78.251      21.497     111.970
  P      -74.933      20.350     109.602
  C      -72.380      20.031     109.297
  O      -73.457      20.936     109.383
  O      -75.258      19.050     108.945
  O      -74.978      20.150     111.191
  H      -74.802      19.223     111.404
  H      -71.447      20.603     109.196
  H      -72.482      19.388     108.423
  H      -72.315      19.417     110.203
  H      -83.707      23.376     112.525
  H      -82.026      23.256     112.987
  H      -83.014      21.818     112.904

 3  4  5  6  7  8  9  10  11  12  13  23  28  29  30  31  32 0
 6-311+G(2d,p)
 ****
 33  34 0
 6-311+G(2d,p)
 ****
 1  2  14  15  16  17  18  19  20  21  22  24  25  26  27 0
 3-21G
 ****
 35  36  37  38  39  40  41  42  43  44  45 0
 3-21G
 ****


