%nproc=1
%NoSave
%Mem=1900MB
#P OB98/GEN NMR

erre ene a

0 1
  C     -523.799     -15.368      54.142
  O     -523.339     -16.253      53.142
  P     -524.303     -17.047      52.152
  C     -522.378     -18.583      51.312
  O     -523.685     -18.509      51.880
  C     -521.513     -19.700      51.916
  O     -521.206     -19.371      53.293
  C     -522.309     -21.022      51.953
  O     -522.368     -21.847      50.808
  C     -521.854     -21.721      53.232
  O     -520.857     -22.713      52.984
  C     -521.281     -20.582      54.083
  N     -523.406     -22.509      58.267
  C     -522.464     -23.076      57.432
  N     -522.192     -24.376      57.641
  N     -521.856     -22.423      56.480
  C     -522.292     -21.139      56.333
  C     -523.222     -20.470      57.103
  C     -523.854     -21.195      58.178
  O     -524.760     -20.754      58.885
  N     -523.476     -19.212      56.611
  C     -522.736     -19.133      55.522
  N     -522.041     -20.294      55.293
  O     -524.842     -16.275      50.975
  O     -525.553     -17.382      53.114
  H     -520.610     -23.108      53.843
  H     -526.372     -17.342      52.570
  H     -523.905     -23.095      58.937
  H     -522.709     -18.282      54.852
  H     -520.258     -20.815      54.388
  H     -522.696     -22.241      53.711
  H     -522.749     -24.953      58.271
  H     -523.359     -20.749      52.143
  H     -521.635     -24.876      56.950
  H     -520.551     -19.781      51.406
  H     -521.896     -17.599      51.452
  H     -522.457     -18.750      50.231
  P     -523.202     -23.207      50.664
  C     -521.971     -23.652      48.467
  O     -522.394     -24.201      49.702
  O     -524.480     -22.797      49.759
  O     -523.665     -23.808      51.959
  H     -525.201     -23.434      49.901
  H     -521.702     -24.467      47.782
  H     -521.075     -23.034      48.623
  H     -522.760     -23.057      48.017
  H     -522.962     -14.962      54.671
  H     -524.430     -15.898      54.825
  H     -524.353     -14.573      53.688

 3  4  5  6  7  8  9  10  11  12  23  26  30  31 0
 6-311+G(2d,p)
 ****
 33  35  36  37  38 0
 6-311+G(2d,p)
 ****
 1  2  13  14  15  16  17  18  19  20  21  22  24  25 0
 3-21G
 ****
 27  28  29  32  34  39  40  41  42  43  44  45  46  47  48  49 0
 3-21G
 ****


