%nproc=1
%NoSave
%Mem=1900MB
#P OB98/GEN NMR

erre ene a

0 1
  C       93.951    -140.195    -282.442
  O       94.740    -141.366    -282.540
  H       93.110    -140.265    -283.138
  H       93.557    -140.121    -281.425
  H       94.546    -139.305    -282.660
  P       95.657    -141.528    -283.847
  C       94.726    -143.943    -284.035
  O       95.871    -143.107    -284.058
  C       94.935    -145.111    -283.070
  O       95.225    -144.572    -281.745
  C       93.722    -146.051    -282.940
  O       94.204    -147.398    -282.831
  C       93.105    -145.641    -281.613
  O       92.353    -146.688    -281.010
  C       94.344    -145.234    -280.818
  N       93.823    -145.026    -275.763
  C       94.441    -145.915    -276.569
  N       94.581    -145.867    -277.911
  C       94.061    -144.727    -278.404
  C       93.401    -143.725    -277.705
  C       93.275    -143.917    -276.319
  N       92.585    -143.052    -275.497
  N       92.957    -142.746    -278.574
  C       93.314    -143.160    -279.773
  N       93.981    -144.353    -279.722
  O       97.087    -141.017    -283.329
  O       95.199    -140.775    -285.052
  H       91.617    -146.931    -281.603
  H       97.150    -140.051    -283.444
  H       94.875    -146.779    -276.079
  H       93.092    -142.658    -280.702
  H       94.872    -146.096    -280.395
  H       92.438    -144.783    -281.774
  H       93.017    -145.978    -283.774
  H       95.826    -145.669    -283.387
  H       94.551    -144.343    -285.040
  H       92.455    -143.327    -274.532
  H       92.078    -142.281    -275.908
  H       93.853    -143.352    -283.735
  P       93.208    -148.575    -283.280
  C       93.917    -150.494    -281.661
  O       93.924    -149.979    -282.993
  O       93.216    -148.474    -284.878
  O       91.826    -148.440    -282.724
  H       92.349    -148.732    -285.235
  H       94.432    -151.432    -281.638
  H       92.907    -150.634    -281.338
  H       94.407    -149.802    -281.008

 6  7  8  9  10  11  12  13  14  15  25  28  32  33  34  35 0
 6-311+G(2d,p)
 ****
 36  39  40 0
 6-311+G(2d,p)
 ****
 1  2  3  4  5  16  17  18  19  20  21  22  23  24 0
 3-21G
 ****
 26  27  29  30  31  37  38  41  42  43  44  45  46  47 0
 3-21G
 ****
 48 0
 3-21G
 ****


