%nproc=1
%NoSave
%Mem=1900MB
#P OB98/GEN NMR

erre ene a

0 1
  C      321.785     841.884      16.520
  O      320.454     841.430      16.648
  P      319.742     841.596      18.079
  C      320.876     841.250      20.422
  O      320.638     840.765      19.106
  C      322.104     840.573      21.029
  O      323.274     840.956      20.291
  C      322.389     840.946      22.490
  O      321.517     840.254      23.382
  C      323.857     840.559      22.605
  O      323.982     839.133      22.810
  C      324.403     840.939      21.214
  N      325.109     842.224      21.213
  C      326.349     842.237      21.829
  O      326.850     841.247      22.380
  N      326.999     843.451      21.838
  C      326.516     844.630      21.350
  O      327.126     845.692      21.430
  C      325.189     844.556      20.723
  C      324.564     843.374      20.690
  O      318.426     840.698      17.862
  O      319.480     843.019      18.440
  H      318.573     840.000      17.196
  H      323.470     838.708      22.075
  H      327.922     843.481      22.279
  H      324.754     845.462      20.329
  H      323.571     843.296      20.242
  H      325.083     840.163      20.846
  H      324.356     841.057      23.443
  H      322.287     842.022      22.621
  H      321.968     839.482      20.924
  H      319.986     841.028      21.049
  H      321.005     842.331      20.400
  P      321.411     840.871      24.874
  C      323.257     841.881      26.413
  O      322.901     840.923      25.447
  O      320.718     839.642      25.653
  O      320.636     842.155      24.944
  H      321.088     838.767      25.401
  H      324.162     841.546      26.932
  H      322.453     842.024      27.163
  H      323.449     842.840      25.925
  H      322.126     841.711      15.521
  H      322.410     841.354      17.208
  H      321.827     842.931      16.734

 3  4  5  6  7  8  9  10  11  12  13  24  28  29  30  31  32 0
 6-311+G(2d,p)
 ****
 33  34 0
 6-311+G(2d,p)
 ****
 1  2  14  15  16  17  18  19  20  21  22  23  25  26  27 0
 3-21G
 ****
 35  36  37  38  39  40  41  42  43  44  45 0
 3-21G
 ****


