%nproc=1
%NoSave
%Mem=1900MB
#P OB98/GEN NMR

erre ene a

0 1
  C      -33.827     -76.849    -220.432
  O      -34.021     -78.202    -220.074
  H      -34.226     -76.217    -219.636
  H      -34.364     -76.624    -221.358
  H      -32.764     -76.627    -220.554
  P      -33.434     -79.350    -221.028
  C      -34.885     -78.729    -223.057
  O      -33.567     -78.810    -222.534
  C      -34.879     -78.061    -224.429
  O      -34.376     -76.707    -224.284
  C      -34.006     -78.781    -225.463
  O      -34.652     -78.710    -226.732
  C      -32.735     -77.949    -225.490
  O      -32.052     -78.049    -226.739
  C      -33.271     -76.547    -225.199
  N      -29.018     -74.009    -226.193
  C      -29.853     -74.712    -227.034
  N      -29.494     -74.772    -228.339
  N      -30.947     -75.307    -226.641
  C      -31.193     -75.156    -225.317
  C      -30.442     -74.488    -224.378
  C      -29.224     -73.839    -224.827
  O      -28.442     -73.218    -224.124
  N      -31.010     -74.581    -223.131
  C      -32.095     -75.308    -223.316
  N      -32.247     -75.690    -224.620
  O      -33.997     -80.718    -220.808
  O      -31.859     -79.306    -220.759
  H      -31.261     -77.467    -226.682
  H      -31.592     -80.018    -220.149
  H      -28.185     -73.577    -226.549
  H      -32.802     -75.592    -222.542
  H      -33.637     -76.045    -226.104
  H      -32.057     -78.284    -224.698
  H      -28.675     -74.320    -228.717
  H      -33.811     -79.825    -225.199
  H      -30.105     -75.262    -228.980
  H      -35.913     -77.977    -224.781
  H      -35.494     -78.139    -222.361
  H      -35.312     -79.734    -223.131
  P      -35.767     -79.804    -227.094
  C      -34.037     -81.554    -227.867
  O      -35.101     -81.260    -226.966
  O      -36.531     -79.560    -228.352
  O      -36.739     -79.753    -225.814
  H      -37.645     -79.986    -226.095
  H      -33.679     -82.546    -227.685
  H      -33.241     -80.854    -227.719
  H      -34.392     -81.483    -228.874

 6  7  8  9  10  11  12  13  14  15  26  29  33  34 0
 6-311+G(2d,p)
 ****
 36  38  39  40  41 0
 6-311+G(2d,p)
 ****
 1  2  3  4  5  16  17  18  19  20  21  22  23  24  25 0
 3-21G
 ****
 27  28  30  31  32  35  37  42  43  44  45  46  47 0
 3-21G
 ****
 48  49 0
 3-21G
 ****


