%nproc=1
%NoSave
%Mem=1900MB
#P OB98/GEN NMR

erre ene a

0 1
  C      277.586       2.943      -7.659
  O      278.585       1.956      -7.783
  P      278.451       0.539      -7.048
  C      280.057       1.304      -5.182
  O      279.796       0.332      -6.191
  C      281.382       0.995      -4.477
  O      281.207      -0.195      -3.648
  C      282.535       0.718      -5.464
  O      283.710       1.502      -5.240
  C      282.723      -0.786      -5.348
  O      283.992      -1.243      -5.778
  C      282.358      -1.031      -3.880
  N      282.091      -2.440      -3.597
  C      283.178      -3.309      -3.624
  O      284.335      -2.969      -3.855
  N      282.890      -4.631      -3.428
  C      281.645      -5.175      -3.330
  O      281.455      -6.380      -3.258
  C      280.531      -4.211      -3.350
  C      280.799      -2.907      -3.454
  O      278.104      -0.613      -7.932
  O      277.368       0.825      -5.902
  H      283.917      -2.198      -5.965
  H      277.618       1.518      -5.268
  H      283.669      -5.274      -3.446
  H      279.532      -4.612      -3.284
  H      279.999      -2.173      -3.473
  H      283.149      -0.689      -3.208
  H      281.977      -1.267      -5.993
  H      282.241       0.969      -6.492
  H      281.618       1.842      -3.824
  H      279.246       1.275      -4.450
  H      280.065       2.304      -5.626
  P      284.371       2.495      -6.307
  C      286.784       1.534      -6.432
  O      285.939       2.582      -6.002
  O      283.683       3.811      -6.463
  O      284.312       1.663      -7.677
  H      284.249       2.280      -8.427
  H      287.643       1.472      -5.756
  H      287.146       1.752      -7.439
  H      286.266       0.570      -6.432
  H      277.867       3.808      -8.223
  H      277.475       3.210      -6.629
  H      276.658       2.560      -8.031

 3  4  5  6  7  8  9  10  11  12  13  23  28  29  30  31  32 0
 6-311+G(2d,p)
 ****
 33  34 0
 6-311+G(2d,p)
 ****
 1  2  14  15  16  17  18  19  20  21  22  24  25  26  27 0
 3-21G
 ****
 35  36  37  38  39  40  41  42  43  44  45 0
 3-21G
 ****


