%nproc=1
%NoSave
%Mem=1900MB
#P OB98/GEN NMR

erre ene a

0 1
  C      -68.539     586.035     -52.310
  O      -68.711     584.644     -52.490
  H      -67.710     586.373     -52.935
  H      -68.298     586.246     -51.263
  H      -69.442     586.580     -52.601
  P      -70.070     584.002     -51.927
  C      -69.007     583.125     -49.725
  O      -69.949     584.006     -50.325
  C      -69.708     581.869     -49.213
  O      -68.735     580.873     -48.819
  C      -70.602     582.101     -47.999
  O      -71.889     582.572     -48.380
  C      -70.687     580.690     -47.435
  O      -71.611     579.906     -48.228
  C      -69.255     580.178     -47.653
  N      -68.250     579.036     -42.807
  C      -69.308     578.653     -43.612
  N      -70.240     577.851     -43.038
  N      -69.454     579.014     -44.858
  C      -68.459     579.833     -45.292
  C      -67.365     580.286     -44.590
  C      -67.211     579.867     -43.217
  O      -66.291     580.172     -42.468
  N      -66.577     581.101     -45.369
  C      -67.203     581.155     -46.521
  N      -68.354     580.405     -46.528
  O      -69.918     582.453     -52.320
  O      -71.325     584.582     -52.489
  H      -71.875     579.144     -47.676
  H      -70.470     582.268     -53.108
  H      -68.198     578.730     -41.851
  H      -66.865     581.715     -47.385
  H      -69.223     579.102     -47.868
  H      -71.047     580.664     -46.405
  H      -70.200     577.550     -42.075
  H      -70.127     582.760     -47.265
  H      -71.021     577.553     -43.610
  H      -70.285     581.447     -50.047
  H      -68.521     583.636     -48.892
  H      -68.253     582.855     -50.473
  P      -72.657     583.561     -47.375
  C      -74.150     581.612     -46.524
  O      -73.241     582.660     -46.180
  O      -73.964     583.963     -48.212
  O      -71.892     584.767     -46.950
  H      -73.920     584.910     -48.464
  H      -74.455     581.099     -45.636
  H      -73.667     580.924     -47.186
  H      -75.008     582.029     -47.008

 6  7  8  9  10  11  12  13  14  15  26  29  33  34 0
 6-311+G(2d,p)
 ****
 36  38  39  40  41 0
 6-311+G(2d,p)
 ****
 1  2  3  4  5  16  17  18  19  20  21  22  23  24  25 0
 3-21G
 ****
 27  28  30  31  32  35  37  42  43  44  45  46  47 0
 3-21G
 ****
 48  49 0
 3-21G
 ****


