%nproc=1
%NoSave
%Mem=1900MB
#P OB98/GEN NMR

erre ene a

0 1
  C     -324.523     405.652    -438.667
  O     -324.405     406.743    -439.558
  H     -325.289     405.884    -437.927
  H     -323.574     405.475    -438.158
  H     -324.822     404.751    -439.214
  P     -323.338     406.587    -440.749
  C     -325.196     405.408    -442.142
  O     -324.189     406.421    -442.097
  C     -326.559     406.055    -442.371
  O     -326.999     406.724    -441.164
  C     -326.562     407.131    -443.462
  O     -326.580     406.571    -444.764
  C     -327.823     407.897    -443.097
  O     -329.000     407.269    -443.630
  C     -327.839     407.836    -441.573
  N     -328.928     412.762    -440.799
  C     -329.631     411.759    -441.374
  N     -329.279     410.470    -441.525
  C     -328.055     410.248    -440.992
  C     -327.231     411.167    -440.364
  C     -327.709     412.483    -440.286
  N     -326.981     413.510    -439.717
  N     -326.041     410.564    -439.981
  C     -326.160     409.305    -440.359
  N     -327.367     409.065    -440.958
  O     -322.727     405.129    -440.497
  O     -322.277     407.639    -440.790
  H     -329.755     407.806    -443.305
  H     -321.863     405.214    -440.045
  H     -330.617     412.036    -441.758
  H     -325.410     408.536    -440.222
  H     -328.842     407.635    -441.174
  H     -327.785     408.913    -443.494
  H     -325.696     407.788    -443.332
  H     -327.296     405.260    -442.598
  H     -325.211     404.864    -441.186
  H     -324.960     404.712    -442.951
  H     -327.354     414.436    -439.758
  H     -326.022     413.331    -439.436
  P     -325.633     407.245    -445.857
  C     -323.997     405.206    -445.795
  O     -324.819     406.063    -446.580
  O     -324.512     407.998    -445.002
  O     -326.330     408.175    -446.807
  H     -324.252     408.829    -445.447
  H     -323.531     404.480    -446.428
  H     -324.598     404.707    -445.063
  H     -323.244     405.786    -445.303

 6  7  8  9  10  11  12  13  14  15  25  28  32  33  34  35 0
 6-311+G(2d,p)
 ****
 36  37  40 0
 6-311+G(2d,p)
 ****
 1  2  3  4  5  16  17  18  19  20  21  22  23  24 0
 3-21G
 ****
 26  27  29  30  31  38  39 41  42  43  44  45  46  47  48 0
 3-21G
 ****


