%nproc=1
%NoSave
%Mem=1900MB
#P OB98/GEN NMR

erre ene a

0 1
  C     -572.633     238.255     -74.212
  O     -572.585     236.931     -73.669
  P     -571.917     235.754     -74.517
  C     -574.168     234.776     -75.330
  O     -572.908     235.326     -75.702
  C     -574.984     234.439     -76.585
  O     -574.343     233.404     -77.366
  C     -576.360     233.885     -76.263
  O     -577.301     234.781     -75.702
  C     -576.747     233.197     -77.563
  O     -577.283     234.121     -78.509
  C     -575.380     232.660     -78.043
  N     -575.229     231.222     -77.829
  C     -575.707     230.398     -78.841
  O     -576.276     230.819     -79.846
  N     -575.550     229.052     -78.641
  C     -574.999     228.463     -77.533
  O     -574.903     227.253     -77.396
  C     -574.525     229.392     -76.490
  C     -574.659     230.703     -76.683
  O     -571.343     234.625     -73.730
  O     -570.746     236.522     -75.320
  H     -576.574     234.775     -78.707
  H     -569.959     235.944     -75.319
  H     -575.883     228.436     -79.360
  H     -574.086     228.960     -75.597
  H     -574.321     231.404     -75.925
  H     -575.250     232.855     -79.120
  H     -577.506     232.424     -77.404
  H     -576.237     233.084     -75.512
  H     -575.049     235.335     -77.209
  H     -574.710     235.494     -74.709
  H     -574.009     233.892     -74.711
  P     -577.533     234.935     -74.123
  C     -579.480     233.244     -73.831
  O     -578.131     233.565     -73.563
  O     -578.165     236.202     -73.648
  O     -576.021     234.886     -73.578
  H     -575.964     235.455     -72.788
  H     -579.715     232.290     -73.362
  H     -579.642     233.157     -74.909
  H     -580.141     234.011     -73.417
  H     -573.111     238.910     -73.514
  H     -573.186     238.245     -75.128
  H     -571.638     238.600     -74.400

 3  4  5  6  7  8  9  10  11  12  13  23  28  29  30  31  32 0
 6-311+G(2d,p)
 ****
 33  34 0
 6-311+G(2d,p)
 ****
 1  2  14  15  16  17  18  19  20  21  22  24  25  26  27 0
 3-21G
 ****
 35  36  37  38  39  40  41  42  43  44  45 0
 3-21G
 ****


