%nproc=1
%NoSave
%Mem=1900MB
#P OB98/GEN NMR

erre ene a

0 1
  C     -375.095     283.428    -666.578
  O     -374.904     283.025    -667.937
  P     -375.492     281.586    -668.378
  C     -373.450     280.661    -669.726
  O     -374.781     281.154    -669.760
  C     -372.951     280.358    -671.132
  O     -373.723     279.295    -671.771
  C     -373.047     281.545    -672.098
  O     -371.945     282.421    -671.928
  C     -372.977     280.837    -673.434
  O     -371.611     280.516    -673.747
  C     -373.776     279.552    -673.191
  N     -377.099     278.676    -676.995
  C     -375.751     278.505    -676.893
  N     -374.946     278.783    -675.853
  C     -375.647     279.253    -674.819
  C     -377.018     279.486    -674.774
  C     -377.746     279.175    -675.917
  N     -379.126     279.332    -675.989
  N     -377.372     279.994    -673.542
  C     -376.236     280.064    -672.854
  N     -375.172     279.644    -673.596
  O     -376.998     281.941    -668.826
  O     -375.466     280.558    -667.301
  H     -371.608     279.988    -674.566
  H     -377.579     281.202    -668.601
  H     -375.257     278.089    -677.800
  H     -376.152     280.413    -671.838
  H     -373.333     278.689    -673.694
  H     -373.347     281.448    -674.257
  H     -374.006     282.057    -671.981
  H     -371.898     280.014    -671.055
  H     -373.404     279.758    -669.101
  H     -379.585     279.059    -676.866
  H     -379.619     279.693    -675.194
  H     -372.808     281.400    -669.237
  P     -372.194     283.744    -671.061
  C     -370.715     285.235    -672.609
  O     -370.924     284.688    -671.317
  O     -371.991     283.232    -669.543
  O     -373.530     284.393    -671.245
  H     -372.553     283.753    -668.937
  H     -370.008     286.071    -672.529
  H     -371.664     285.606    -673.029
  H     -370.306     284.474    -673.269
  H     -374.659     284.393    -666.428
  H     -374.627     282.720    -665.927
  H     -376.142     283.472    -666.363

 3  4  5  6  7  8  9  10  11  12  22  25  29  30  31  32 0
 6-311+G(2d,p)
 ****
 33  36  37 0
 6-311+G(2d,p)
 ****
 1  2  13  14  15  16  17  18  19  20  21  23  24  26 0
 3-21G
 ****
 27  28  34  35  38  39  40  41  42  43  44  45  46  47  48 0
 3-21G
 ****


