%nproc=1
%NoSave
%Mem=1900MB
#P OB98/GEN NMR

erre ene a

0 1
  C      -46.947    -125.490    -256.528
  O      -47.434    -124.580    -257.506
  P      -47.630    -123.046    -257.060
  C      -48.934    -121.928    -255.105
  O      -48.797    -123.063    -255.959
  C      -50.406    -121.574    -254.916
  O      -50.917    -120.926    -256.099
  C      -51.316    -122.765    -254.673
  O      -51.299    -123.186    -253.316
  C      -52.670    -122.169    -255.026
  O      -53.156    -121.374    -253.924
  C      -52.324    -121.269    -256.216
  N      -55.920    -123.042    -259.397
  C      -55.997    -122.527    -258.146
  N      -54.993    -122.087    -257.361
  C      -53.804    -122.254    -257.973
  C      -53.570    -122.798    -259.225
  C      -54.697    -123.194    -259.957
  N      -54.624    -123.692    -261.244
  N      -52.222    -122.806    -259.506
  C      -51.651    -122.269    -258.449
  N      -52.563    -121.909    -257.496
  O      -48.338    -122.389    -258.338
  O      -46.378    -122.332    -256.680
  H      -53.201    -121.967    -253.148
  H      -48.183    -121.424    -258.347
  H      -56.996    -122.453    -257.728
  H      -50.587    -122.111    -258.330
  H      -52.889    -120.330    -256.206
  H      -53.431    -122.930    -255.229
  H      -51.089    -123.588    -255.360
  H      -50.475    -120.857    -254.084
  H      -48.414    -121.078    -255.560
  H      -55.480    -123.777    -261.768
  H      -53.739    -123.616    -261.732
  H      -48.466    -122.151    -254.140
  P      -51.157    -124.765    -253.052
  C      -52.567    -126.805    -253.838
  O      -52.519    -125.411    -253.594
  O      -51.281    -124.877    -251.460
  O      -49.888    -125.362    -253.568
  H      -50.827    -125.682    -251.139
  H      -53.615    -127.114    -253.894
  H      -52.081    -127.363    -253.030
  H      -52.078    -127.033    -254.791
  H      -46.866    -126.466    -256.958
  H      -47.624    -125.520    -255.700
  H      -45.984    -125.168    -256.190

 3  4  5  6  7  8  9  10  11  12  22  25  29  30  31  32 0
 6-311+G(2d,p)
 ****
 33  36  37 0
 6-311+G(2d,p)
 ****
 1  2  13  14  15  16  17  18  19  20  21  23  24  26 0
 3-21G
 ****
 27  28  34  35  38  39  40  41  42  43  44  45  46  47  48 0
 3-21G
 ****


