%nproc=1
%NoSave
%Mem=1900MB
#P OB98/GEN NMR

erre ene a

0 1
  C       40.155     141.436      98.562
  O       41.090     142.168      97.797
  H       40.671     140.727      99.216
  H       39.583     142.134      99.179
  H       39.467     140.901      97.902
  P       42.104     141.308      96.899
  C       43.637     139.258      97.300
  O       42.643     140.119      97.834
  C       44.783     139.100      98.292
  O       44.354     138.327      99.431
  C       46.004     138.370      97.746
  O       46.812     139.214      96.939
  C       46.708     137.992      99.041
  O       47.446     139.123      99.539
  C       45.532     137.678      99.979
  N       47.266     133.198     101.793
  C       47.790     134.445     101.818
  N       47.281     135.584     101.308
  C       46.089     135.357     100.731
  C       45.430     134.143     100.628
  C       46.070     133.024     101.186
  N       45.535     131.754     101.140
  N       44.223     134.296      99.982
  C       44.151     135.580      99.698
  N       45.259     136.262     100.125
  O       43.379     142.268      96.751
  O       41.579     140.888      95.566
  H       47.839     138.848     100.389
  H       43.765     142.147      95.863
  H       48.749     134.541     102.321
  H       43.319     136.058      99.194
  H       45.691     138.099     100.978
  H       47.414     137.168      98.922
  H       45.715     137.458      97.212
  H       45.058     140.101      98.651
  H       44.025     139.683      96.369
  H       45.937     131.040     101.722
  H       44.634     131.635     100.690
  H       43.183     138.285      97.085
  P       47.914     138.511      96.005
  C       50.094     137.221      96.567
  O       48.785     137.589      96.988
  O       48.909     139.715      95.652
  O       47.380     137.853      94.780
  H       49.367     139.529      94.809
  H       50.552     136.611      97.318
  H       50.681     138.103      96.417
  H       50.033     136.673      95.650

 6  7  8  9  10  11  12  13  14  15  25  28  32  33  34  35 0
 6-311+G(2d,p)
 ****
 36  39  40 0
 6-311+G(2d,p)
 ****
 1  2  3  4  5  16  17  18  19  20  21  22  23  24 0
 3-21G
 ****
 26  27  29  30  31  37  38  41  42  43  44  45  46  47  48 0
 3-21G
 ****


