%nproc=1
%NoSave
%Mem=1900MB
#P OB98/GEN NMR

erre ene a

0 1
  C     -281.329     212.729     102.392
  O     -281.781     212.042     103.542
  H     -280.784     212.047     101.735
  H     -282.196     213.120     101.853
  H     -280.685     213.566     102.679
  P     -280.652     211.414     104.493
  C     -282.015     212.420     106.459
  O     -281.311     211.297     105.952
  C     -282.514     212.137     107.871
  O     -283.688     211.302     107.826
  C     -281.520     211.395     108.759
  O     -280.538     212.272     109.297
  C     -282.447     210.868     109.843
  O     -282.750     211.919     110.781
  C     -283.705     210.504     109.040
  N     -286.154     206.079     109.827
  C     -286.378     207.330     110.286
  N     -285.694     208.461     110.014
  C     -284.693     208.215     109.155
  C     -284.353     207.000     108.583
  C     -285.130     205.890     108.953
  N     -284.849     204.602     108.525
  N     -283.251     207.138     107.758
  C     -282.923     208.409     107.851
  N     -283.766     209.102     108.677
  O     -279.603     212.619     104.642
  O     -280.002     210.174     103.974
  H     -283.456     211.580     111.364
  H     -278.875     212.490     104.005
  H     -287.216     207.434     110.967
  H     -282.085     208.871     107.344
  H     -284.627     210.751     109.577
  H     -282.016     210.041     110.414
  H     -281.062     210.549     108.236
  H     -282.806     213.093     108.326
  H     -282.872     212.637     105.810
  H     -285.139     203.885     109.183
  H     -283.934     204.491     108.103
  H     -281.344     213.285     106.460
  P     -279.014     211.773     109.298
  C     -278.170     214.200     109.620
  O     -278.176     212.869     110.123
  O     -278.562     212.010     107.781
  O     -278.807     210.355     109.708
  H     -278.230     211.175     107.400
  H     -277.579     214.821     110.261
  H     -279.172     214.573     109.587
  H     -277.754     214.207     108.634

 6  7  8  9  10  11  12  13  14  15  25  28  32  33  34  35 0
 6-311+G(2d,p)
 ****
 36  39  40 0
 6-311+G(2d,p)
 ****
 1  2  3  4  5  16  17  18  19  20  21  22  23  24 0
 3-21G
 ****
 26  27  29  30  31  37  38  41  42  43  44  45  46  47  48 0
 3-21G
 ****


