%nproc=1
%NoSave
%Mem=1900MB
#P OB98/GEN NMR

erre ene a

0 1
  C      194.580    -209.355      80.984
  O      195.165    -208.279      81.684
  H      195.161    -210.260      81.192
  H      194.598    -209.174      79.908
  H      193.553    -209.517      81.321
  P      194.628    -206.789      81.410
  C      193.301    -206.263      83.545
  O      194.546    -206.106      82.870
  C      193.502    -206.710      84.993
  O      193.899    -208.108      85.020
  C      194.572    -205.911      85.747
  O      194.066    -205.541      87.035
  C      195.722    -206.898      85.893
  O      196.567    -206.578      86.995
  C      194.962    -208.226      85.986
  N      195.807    -209.385      85.721
  C      196.709    -209.745      86.729
  O      196.783    -209.072      87.760
  N      197.524    -210.828      86.534
  C      197.486    -211.467      85.407
  N      198.329    -212.527      85.273
  C      196.585    -211.096      84.295
  C      195.777    -210.059      84.523
  O      193.370    -206.717      80.613
  O      195.863    -206.036      80.730
  H      196.077    -206.772      87.827
  H      195.535    -205.237      80.249
  H      196.598    -211.652      83.372
  H      195.074    -209.720      83.766
  H      194.509    -208.346      86.978
  H      196.334    -206.882      84.982
  H      194.885    -205.009      85.226
  H      192.533    -206.662      85.504
  H      198.930    -212.750      86.056
  H      192.697    -206.994      82.998
  H      198.391    -213.092      84.437
  H      192.786    -205.295      83.539
  P      194.274    -204.005      87.459
  C      192.464    -202.755      86.089
  O      192.849    -203.271      87.354
  O      195.109    -203.400      86.236
  O      194.987    -203.834      88.758
  H      196.053    -203.338      86.469
  H      191.500    -202.297      86.169
  H      192.422    -203.552      85.376
  H      193.179    -202.027      85.768

 6  7  8  9  10  11  12  13  14  15  16  26  30  31  32  33  35 0
 6-311+G(2d,p)
 ****
 37  38 0
 6-311+G(2d,p)
 ****
 1  2  3  4  5  17  18  19  20  21  22  23  24  25 0
 3-21G
 ****
 27  28  29  34  36  39  40  41  42  43  44  45  46 0
 3-21G
 ****


