%nproc=1
%NoSave
%Mem=1900MB
#P OB98/GEN NMR

erre ene a

0 1
  C       19.815    -339.991     488.697
  O       19.406    -338.724     489.166
  H       20.876    -339.945     488.442
  H       19.249    -340.241     487.794
  H       19.665    -340.764     489.456
  P       18.050    -338.613     490.006
  C       15.578    -338.094     489.491
  O       16.831    -338.492     488.961
  C       14.779    -337.246     488.491
  O       15.409    -335.956     488.326
  C       14.738    -337.878     487.102
  O       13.729    -338.851     486.907
  C       14.495    -336.652     486.210
  O       13.091    -336.351     486.125
  C       15.240    -335.544     486.953
  N       18.595    -331.954     485.550
  C       17.324    -331.796     486.069
  N       16.869    -330.527     486.178
  N       16.568    -332.804     486.435
  C       17.121    -334.016     486.186
  C       18.367    -334.294     485.657
  C       19.216    -333.169     485.313
  O       20.347    -333.254     484.838
  N       18.572    -335.643     485.548
  C       17.435    -336.185     485.937
  N       16.530    -335.234     486.360
  O       18.114    -337.136     490.635
  O       17.872    -339.649     491.081
  H       12.805    -335.971     486.978
  H       17.592    -337.104     491.455
  H       19.147    -331.140     485.314
  H       17.222    -337.250     485.965
  H       14.658    -334.607     486.969
  H       14.843    -336.821     485.191
  H       17.369    -329.733     485.803
  H       15.712    -338.302     486.843
  H       15.864    -330.387     486.295
  H       13.775    -337.064     488.884
  H       15.777    -337.516     490.392
  H       14.990    -338.971     489.790
  P       13.807    -339.858     485.663
  C       12.021    -340.815     484.017
  O       12.383    -339.786     484.917
  O       13.795    -341.297     486.369
  O       14.993    -339.676     484.784
  H       14.714    -341.626     486.455
  H       11.051    -340.611     483.614
  H       12.003    -341.751     484.535
  H       12.735    -340.861     483.222

 6  7  8  9  10  11  12  13  14  15  26  29  33  34 0
 6-311+G(2d,p)
 ****
 36  38  39  40  41 0
 6-311+G(2d,p)
 ****
 1  2  3  4  5  16  17  18  19  20  21  22  23  24  25 0
 3-21G
 ****
 27  28  30  31  32  35  37  42  43  44  45  46  47 0
 3-21G
 ****
 48  49 0
 3-21G
 ****


