%nproc=1
%NoSave
%Mem=1900MB
#P OB98/GEN NMR

erre ene a

0 1
  C      -60.320      94.702    -148.739
  O      -60.105      95.173    -147.425
  H      -61.394      94.710    -148.944
  H      -59.950      93.679    -148.840
  H      -59.817      95.353    -149.459
  P      -58.590      95.186    -146.898
  C      -56.932      93.404    -145.993
  O      -58.213      93.668    -146.545
  C      -56.380      92.108    -146.578
  O      -56.249      92.233    -148.012
  C      -54.992      91.741    -146.074
  O      -55.023      91.164    -144.781
  C      -54.546      90.761    -147.148
  O      -55.041      89.437    -146.889
  C      -55.185      91.352    -148.424
  N      -54.205      92.032    -149.264
  C      -53.524      91.224    -150.170
  O      -53.718      90.014    -150.273
  N      -52.577      91.851    -150.934
  C      -52.228      93.167    -150.854
  O      -51.320      93.650    -151.519
  C      -52.991      93.974    -149.889
  C      -53.924      93.377    -149.142
  O      -58.712      95.892    -145.467
  O      -57.617      95.882    -147.790
  H      -58.410      96.818    -145.527
  H      -54.866      88.919    -147.700
  H      -52.065      91.281    -151.589
  H      -52.743      95.025    -149.805
  H      -54.484      93.948    -148.409
  H      -55.648      90.556    -149.021
  H      -53.460      90.687    -147.198
  H      -54.334      92.618    -146.103
  H      -57.094      91.300    -146.367
  H      -57.017      93.298    -144.907
  H      -56.268      94.246    -146.213
  P      -54.260      91.916    -143.588
  C      -51.759      92.592    -143.164
  O      -52.731      92.063    -144.046
  O      -54.225      90.769    -142.473
  O      -54.915      93.187    -143.166
  H      -54.111      89.879    -142.847
  H      -50.807      92.609    -143.651
  H      -51.701      91.980    -142.288
  H      -52.034      93.588    -142.885

 6  7  8  9  10  11  12  13  14  15  16  27  31  32  33  34  35 0
 6-311+G(2d,p)
 ****
 36  37 0
 6-311+G(2d,p)
 ****
 1  2  3  4  5  17  18  19  20  21  22  23  24  25 0
 3-21G
 ****
 26  28  29  30  38  39  40  41  42  43  44  45 0
 3-21G
 ****


