%nproc=1
%NoSave
%Mem=1900MB
#P OB98/GEN NMR

erre ene a

0 1
  C      198.577     -25.224     249.373
  O      199.547     -25.874     248.580
  H      197.651     -25.803     249.340
  H      198.378     -24.224     248.976
  H      198.907     -25.151     250.413
  P      201.054     -25.332     248.598
  C      203.168     -25.902     249.967
  O      201.750     -25.952     249.902
  C      203.723     -27.164     250.639
  O      203.129     -27.284     251.967
  C      203.409     -28.473     249.884
  O      204.486     -29.382     250.159
  C      202.130     -28.904     250.583
  O      201.761     -30.225     250.273
  C      202.520     -28.591     252.036
  N      201.421     -28.598     252.993
  C      201.462     -29.535     254.022
  O      202.365     -30.356     254.177
  N      200.403     -29.510     254.892
  C      199.344     -28.652     254.847
  O      198.440     -28.660     255.674
  C      199.354     -27.690     253.736
  C      200.373     -27.699     252.875
  O      201.216     -23.858     248.434
  O      201.757     -26.138     247.404
  H      201.839     -25.558     246.622
  H      201.508     -30.271     249.326
  H      200.422     -30.181     255.649
  H      198.521     -27.001     253.662
  H      200.415     -26.997     252.049
  H      203.292     -29.291     252.373
  H      201.296     -28.275     250.259
  H      203.312     -28.336     248.806
  H      204.804     -27.042     250.782
  H      203.453     -25.021     250.550
  H      203.571     -25.807     248.954
  P      205.388     -30.051     249.016
  C      207.038     -29.245     247.185
  O      206.263     -28.888     248.326
  O      204.618     -30.882     248.040
  O      206.471     -30.937     249.790
  H      206.774     -31.666     249.219
  H      207.566     -28.385     246.829
  H      206.391     -29.611     246.415
  H      207.739     -30.008     247.454

 6  7  8  9  10  11  12  13  14  15  16  27  31  32  33  34  35 0
 6-311+G(2d,p)
 ****
 36  37 0
 6-311+G(2d,p)
 ****
 1  2  3  4  5  17  18  19  20  21  22  23  24  25 0
 3-21G
 ****
 26  28  29  30  38  39  40  41  42  43  44  45 0
 3-21G
 ****


