%nproc=1
%NoSave
%Mem=1900MB
#P OB98/GEN NMR

erre ene a

0 1
  C      265.900     123.385     -67.121
  O      266.135     122.919     -68.449
  P      267.580     122.670     -69.082
  C      267.109     120.093     -69.178
  O      267.555     121.264     -69.844
  C      268.243     119.095     -68.886
  O      267.697     117.918     -68.233
  C      268.881     118.608     -70.189
  O      269.883     119.384     -70.821
  C      269.294     117.173     -69.902
  O      270.654     117.068     -69.474
  C      268.346     116.751     -68.776
  N      266.079     112.239     -67.951
  C      267.126     112.825     -67.272
  N      267.678     112.103     -66.275
  N      267.603     114.008     -67.556
  C      267.018     114.585     -68.629
  C      265.987     114.095     -69.397
  C      265.425     112.808     -69.037
  O      264.491     112.249     -69.599
  N      265.670     114.951     -70.422
  C      266.524     115.944     -70.290
  N      267.362     115.773     -69.209
  O      268.735     122.927     -68.174
  O      267.651     123.750     -70.280
  H      271.225     117.287     -70.231
  H      268.588     124.024     -70.353
  H      265.735     111.334     -67.675
  H      266.576     116.811     -70.938
  H      268.897     116.288     -67.948
  H      269.205     116.559     -70.809
  H      267.437     111.143     -66.082
  H      268.074     118.537     -70.930
  H      268.579     112.432     -65.918
  H      268.964     119.519     -68.182
  H      266.350     119.633     -69.817
  H      266.607     120.361     -68.246
  P      270.095     119.554     -72.398
  C      268.153     121.117     -72.985
  O      269.556     120.999     -72.816
  O      269.006     118.573     -73.042
  O      271.467     119.223     -72.891
  H      269.215     118.399     -73.979
  H      267.937     122.024     -73.554
  H      267.671     121.191     -72.005
  H      267.748     120.253     -73.524
  H      264.846     123.465     -66.952
  H      266.355     124.345     -66.994
  H      266.322     122.695     -66.421

 3  4  5  6  7  8  9  10  11  12  23  26  30  31 0
 6-311+G(2d,p)
 ****
 33  35  36  37  38 0
 6-311+G(2d,p)
 ****
 1  2  13  14  15  16  17  18  19  20  21  22  24  25 0
 3-21G
 ****
 27  28  29  32  34  39  40  41  42  43  44  45  46  47  48  49 0
 3-21G
 ****


