%nproc=1
%NoSave
%Mem=1900MB
#P OB98/GEN NMR

erre ene a

0 1
  C       -6.254    -641.479    -555.302
  O       -6.930    -640.245    -555.459
  H       -5.421    -641.337    -554.609
  H       -5.853    -641.829    -556.256
  H       -6.931    -642.233    -554.887
  P       -8.103    -640.158    -556.549
  C       -7.728    -637.643    -556.058
  O       -8.644    -638.650    -556.476
  C       -8.412    -636.280    -556.057
  O       -8.779    -635.904    -557.403
  C       -9.706    -636.258    -555.255
  O       -9.439    -636.225    -553.869
  C      -10.375    -635.023    -555.823
  O       -9.843    -633.829    -555.242
  C       -9.996    -635.128    -557.321
  N      -11.052    -635.726    -558.128
  C      -11.202    -635.210    -559.425
  O      -10.466    -634.311    -559.824
  N      -12.203    -635.718    -560.217
  C      -12.968    -636.667    -559.771
  N      -13.938    -637.124    -560.608
  C      -12.833    -637.246    -558.420
  C      -11.871    -636.729    -557.660
  O       -9.174    -641.203    -556.474
  O       -7.320    -640.198    -557.946
  H      -10.117    -633.844    -554.301
  H       -7.212    -641.117    -558.250
  H      -13.491    -638.039    -558.094
  H      -11.699    -637.101    -556.655
  H       -9.769    -634.136    -557.729
  H      -11.449    -635.028    -555.641
  H      -10.324    -637.128    -555.511
  H       -7.702    -635.536    -555.681
  H      -13.998    -636.689    -561.521
  H       -6.896    -637.649    -556.770
  H      -14.530    -637.912    -560.405
  H       -7.332    -637.865    -555.063
  P      -10.228    -637.194    -552.860
  C       -9.994    -635.128    -551.326
  O      -10.005    -636.554    -551.400
  O       -9.906    -638.645    -552.982
  O      -11.766    -636.858    -553.164
  H      -12.058    -637.249    -554.025
  H       -9.839    -634.825    -550.312
  H      -10.931    -634.746    -551.673
  H       -9.204    -634.745    -551.937

 6  7  8  9  10  11  12  13  14  15  16  26  30  31  32  33  35 0
 6-311+G(2d,p)
 ****
 37  38 0
 6-311+G(2d,p)
 ****
 1  2  3  4  5  17  18  19  20  21  22  23  24  25 0
 3-21G
 ****
 27  28  29  34  36  39  40  41  42  43  44  45  46 0
 3-21G
 ****


