%nproc=1
%NoSave
%Mem=1900MB
#P OB98/GEN NMR

erre ene a

0 1
  C     -105.728     176.258    -426.460
  O     -105.424     176.093    -425.090
  H     -106.060     177.286    -426.626
  H     -106.539     175.581    -426.735
  H     -104.851     176.064    -427.084
  P     -104.553     174.810    -424.682
  C     -102.504     176.383    -424.425
  O     -103.019     175.182    -424.980
  C     -101.146     176.130    -423.771
  O     -101.335     175.222    -422.644
  C     -100.105     175.499    -424.710
  O      -98.814     176.041    -424.401
  C     -100.119     174.040    -424.296
  O      -98.909     173.370    -424.630
  C     -100.359     174.174    -422.795
  N      -98.748     169.676    -421.262
  C      -98.043     170.808    -421.620
  N      -96.697     170.714    -421.632
  N      -98.612     171.938    -421.945
  C      -99.963     171.901    -421.874
  C     -100.778     170.847    -421.539
  C     -100.138     169.594    -421.198
  O     -100.708     168.552    -420.893
  N     -102.101     171.195    -421.648
  C     -102.084     172.449    -422.066
  N     -100.810     172.920    -422.219
  O     -104.917     173.759    -425.834
  O     -104.824     174.261    -423.322
  H      -98.974     172.445    -424.316
  H     -105.640     173.177    -425.534
  H      -98.263     168.826    -421.036
  H     -102.955     173.046    -422.289
  H      -99.452     174.468    -422.249
  H     -100.950     173.519    -424.783
  H      -96.186     169.888    -421.363
  H     -100.320     175.643    -425.774
  H      -96.166     171.548    -421.853
  H     -100.773     177.076    -423.360
  H     -103.201     176.756    -423.666
  H     -102.413     177.135    -425.215
  P      -98.009     176.786    -425.568
  C      -97.609     178.987    -424.240
  O      -98.184     178.369    -425.383
  O      -98.887     176.470    -426.870
  O      -96.603     176.313    -425.730
  H      -98.305     176.375    -427.646
  H      -97.812     180.037    -424.262
  H      -96.551     178.828    -424.243
  H      -98.031     178.561    -423.354

 6  7  8  9  10  11  12  13  14  15  26  29  33  34 0
 6-311+G(2d,p)
 ****
 36  38  39  40  41 0
 6-311+G(2d,p)
 ****
 1  2  3  4  5  16  17  18  19  20  21  22  23  24  25 0
 3-21G
 ****
 27  28  30  31  32  35  37  42  43  44  45  46  47 0
 3-21G
 ****
 48  49 0
 3-21G
 ****


