%nproc=1
%NoSave
%Mem=1900MB
#P OB98/GEN NMR

erre ene a

0 1
  C      314.694     430.189      56.446
  O      313.689     431.071      56.914
  H      315.250     430.684      55.647
  H      314.239     429.277      56.046
  H      315.383     429.937      57.258
  P      312.739     430.514      58.079
  C      310.459     430.040      56.932
  O      311.244     430.955      57.685
  C      309.230     430.739      56.359
  O      308.259     430.999      57.397
  C      309.519     432.081      55.691
  O      309.968     431.902      54.358
  C      308.155     432.749      55.767
  O      307.281     432.291      54.712
  C      307.644     432.287      57.138
  N      305.724     435.859      60.151
  C      305.114     435.079      59.189
  N      303.802     435.328      58.960
  N      305.728     434.151      58.506
  C      307.039     434.041      58.821
  C      307.756     434.740      59.764
  C      307.058     435.745      60.531
  O      307.527     436.422      61.442
  N      309.065     434.329      59.799
  C      309.147     433.407      58.858
  N      307.949     433.211      58.218
  O      313.081     431.460      59.327
  O      312.915     429.072      58.420
  H      307.224     431.321      54.742
  H      312.961     430.954      60.152
  H      305.196     436.548      60.655
  H      310.042     432.860      58.599
  H      306.558     432.138      57.146
  H      308.229     433.834      55.658
  H      303.385     436.219      59.197
  H      310.243     432.661      56.278
  H      303.351     434.775      58.243
  H      308.761     430.052      55.644
  H      310.137     429.223      57.583
  H      311.068     429.630      56.120
  P      311.459     432.394      54.001
  C      310.661     433.535      51.801
  O      311.506     432.561      52.406
  O      312.348     431.089      54.260
  O      311.938     433.565      54.793
  H      313.290     431.334      54.339
  H      310.807     433.525      50.741
  H      310.902     434.504      52.185
  H      309.639     433.308      52.022

 6  7  8  9  10  11  12  13  14  15  26  29  33  34 0
 6-311+G(2d,p)
 ****
 36  38  39  40  41 0
 6-311+G(2d,p)
 ****
 1  2  3  4  5  16  17  18  19  20  21  22  23  24  25 0
 3-21G
 ****
 27  28  30  31  32  35  37  42  43  44  45  46  47 0
 3-21G
 ****
 48  49 0
 3-21G
 ****


