%nproc=1
%NoSave
%Mem=1900MB
#P OB98/GEN NMR

erre ene a

0 1
  C     -155.947     -69.512    -508.862
  O     -157.260     -69.194    -508.436
  P     -158.415     -69.159    -509.547
  C     -158.795     -71.718    -509.218
  O     -158.568     -70.647    -510.122
  C     -159.405     -72.905    -509.966
  O     -160.746     -72.584    -510.405
  C     -158.642     -73.289    -511.224
  O     -157.484     -74.049    -510.919
  C     -159.696     -74.075    -511.997
  O     -159.754     -75.438    -511.545
  C     -160.990     -73.323    -511.623
  N     -161.462     -72.453    -512.692
  C     -162.510     -72.952    -513.465
  O     -163.003     -74.065    -513.283
  N     -162.944     -72.143    -514.478
  C     -162.412     -70.937    -514.829
  O     -162.805     -70.283    -515.786
  C     -161.288     -70.473    -513.997
  C     -160.869     -71.241    -512.992
  O     -157.757     -68.346    -510.759
  O     -159.694     -68.538    -509.093
  H     -160.375     -75.902    -512.141
  H     -158.437     -67.801    -511.201
  H     -163.718     -72.475    -515.035
  H     -160.838     -69.521    -514.248
  H     -160.034     -70.924    -512.375
  H     -161.786     -74.038    -511.384
  H     -159.488     -74.101    -513.068
  H     -158.380     -72.388    -511.794
  H     -159.466     -73.756    -509.276
  H     -159.475     -71.388    -508.428
  H     -157.844     -72.003    -508.754
  P     -156.411     -74.244    -512.098
  C     -156.344     -71.636    -512.255
  O     -156.450     -72.872    -512.925
  O     -157.169     -75.310    -513.016
  O     -155.073     -74.683    -511.602
  H     -158.133     -75.200    -512.992
  H     -155.672     -71.704    -511.395
  H     -157.335     -71.322    -511.917
  H     -155.953     -70.887    -512.952
  H     -155.286     -69.498    -508.021
  H     -155.622     -68.792    -509.583
  H     -155.942     -70.486    -509.304

 3  4  5  6  7  8  9  10  11  12  13  23  28  29  30  31  32 0
 6-311+G(2d,p)
 ****
 33  34 0
 6-311+G(2d,p)
 ****
 1  2  14  15  16  17  18  19  20  21  22  24  25  26 0
 3-21G
 ****
 27  35  36  37  38  39  40  41  42  43  44  45 0
 3-21G
 ****


