%nproc=1
%NoSave
%Mem=1900MB
#P OB98/GEN NMR

erre ene a

0 1
  C     -216.433     -58.261     351.374
  O     -216.409     -56.850     351.439
  H     -217.007     -58.640     352.222
  H     -215.417     -58.659     351.435
  H     -216.910     -58.600     350.450
  P     -215.758     -56.031     350.225
  C     -213.477     -55.873     351.422
  O     -214.180     -56.310     350.265
  C     -212.227     -55.101     351.006
  O     -211.354     -55.948     350.225
  C     -212.514     -53.887     350.132
  O     -213.012     -52.808     350.901
  C     -211.148     -53.651     349.512
  O     -210.289     -52.937     350.417
  C     -210.646     -55.094     349.297
  N     -210.818     -55.558     347.920
  C     -209.841     -55.172     347.009
  O     -208.889     -54.451     347.305
  N     -210.012     -55.617     345.725
  C     -211.097     -56.300     345.252
  O     -211.243     -56.600     344.071
  C     -212.109     -56.660     346.252
  C     -211.926     -56.280     347.522
  O     -216.143     -54.592     350.135
  O     -216.230     -56.844     348.926
  H     -209.423     -52.861     349.971
  H     -216.941     -56.351     348.476
  H     -209.321     -55.337     345.048
  H     -212.976     -57.214     345.920
  H     -212.665     -56.531     348.273
  H     -209.582     -55.170     349.552
  H     -211.204     -53.063     348.596
  H     -213.220     -54.154     349.339
  H     -211.686     -54.806     351.917
  H     -213.187     -56.749     352.009
  H     -214.141     -55.244     352.025
  P     -214.056     -51.783     350.254
  C     -212.117     -50.689     348.968
  O     -213.423     -51.244     348.882
  O     -214.566     -50.723     351.173
  O     -215.252     -52.721     349.753
  H     -216.077     -52.465     350.211
  H     -211.802     -50.366     347.998
  H     -211.438     -51.430     349.335
  H     -212.128     -49.853     349.636

 6  7  8  9  10  11  12  13  14  15  16  26  31  32  33  34  35 0
 6-311+G(2d,p)
 ****
 36  37 0
 6-311+G(2d,p)
 ****
 1  2  3  4  5  17  18  19  20  21  22  23  24  25 0
 3-21G
 ****
 27  28  29  30  38  39  40  41  42  43  44  45 0
 3-21G
 ****


