%nproc=1
%NoSave
%Mem=1900MB
#P OB98/GEN NMR

erre ene a

0 1
  C     -821.417    -206.133      63.173
  O     -821.826    -207.478      63.457
  P     -820.743    -208.650      63.295
  C     -820.424    -209.312      65.788
  O     -820.918    -209.679      64.508
  C     -821.233    -209.997      66.896
  O     -822.528    -209.386      67.073
  C     -821.517    -211.468      66.616
  O     -820.412    -212.291      66.966
  C     -822.686    -211.730      67.558
  O     -822.194    -211.927      68.897
  C     -823.469    -210.414      67.472
  N     -828.229    -212.100      66.595
  C     -827.391    -212.270      67.642
  N     -826.128    -211.806      67.794
  C     -825.759    -211.081      66.724
  C     -826.503    -210.823      65.581
  C     -827.792    -211.371      65.536
  N     -828.641    -211.193      64.468
  N     -825.782    -210.056      64.692
  C     -824.625    -209.836      65.292
  N     -824.562    -210.443      66.520
  O     -819.362    -207.914      63.625
  O     -820.726    -209.259      61.931
  H     -821.713    -212.777      68.902
  H     -818.648    -208.290      63.079
  H     -827.777    -212.856      68.463
  H     -823.819    -209.251      64.883
  H     -823.892    -210.116      68.443
  H     -823.252    -212.621      67.293
  H     -821.835    -211.619      65.582
  H     -820.679    -209.903      67.839
  H     -820.478    -208.225      65.911
  H     -829.566    -211.587      64.516
  H     -828.339    -210.626      63.691
  H     -819.365    -209.580      65.856
  P     -820.320    -213.737      66.275
  C     -818.227    -213.316      64.801
  O     -818.771    -213.957      65.931
  O     -821.010    -213.497      64.850
  O     -820.988    -214.827      67.040
  H     -821.439    -214.325      64.538
  H     -817.137    -213.320      64.882
  H     -818.568    -212.281      64.728
  H     -818.518    -213.855      63.885
  H     -822.243    -205.470      63.325
  H     -821.089    -206.067      62.157
  H     -820.614    -205.859      63.825

 3  4  5  6  7  8  9  10  11  12  22  25  29  30  31  32 0
 6-311+G(2d,p)
 ****
 33  36  37 0
 6-311+G(2d,p)
 ****
 1  2  13  14  15  16  17  18  19  20  21  23  24  26 0
 3-21G
 ****
 27  28  34  35  38  39  40  41  42  43  44  45  46  47  48 0
 3-21G
 ****


