%nproc=1
%NoSave
%Mem=1900MB
#P OB98/GEN NMR

erre ene a

0 1
  C      -19.017    -283.656     291.181
  O      -19.756    -282.833     292.062
  P      -19.282    -282.627     293.581
  C      -19.263    -280.049     293.495
  O      -18.478    -281.236     293.595
  C      -18.373    -278.829     293.245
  O      -17.643    -278.979     292.010
  C      -19.140    -277.518     293.117
  O      -19.532    -277.046     294.391
  C      -18.109    -276.646     292.407
  O      -17.166    -276.093     293.342
  C      -17.415    -277.662     291.470
  N      -17.885    -277.550     290.093
  C      -17.633    -276.329     289.462
  O      -17.075    -275.411     290.067
  N      -18.060    -276.151     288.164
  C      -18.712    -277.108     287.571
  N      -19.121    -276.873     286.291
  C      -19.023    -278.403     288.212
  C      -18.587    -278.550     289.460
  O      -18.562    -283.788     294.186
  O      -20.647    -282.258     294.333
  H      -17.695    -275.630     294.024
  H      -21.220    -283.060     294.454
  H      -19.574    -279.157     287.679
  H      -18.776    -279.465     290.012
  H      -16.331    -277.507     291.475
  H      -18.575    -275.803     291.888
  H      -20.010    -277.659     292.468
  H      -17.644    -278.772     294.069
  H      -18.912    -275.969     285.893
  H      -19.805    -279.914     294.435
  H      -19.655    -277.535     285.750
  H      -19.996    -280.170     292.685
  P      -21.039    -276.551     294.625
  C      -22.256    -278.760     295.109
  O      -22.023    -277.730     294.166
  O      -21.362    -275.200     294.077
  O      -21.189    -276.563     296.226
  H      -21.640    -275.743     296.506
  H      -23.160    -279.297     294.825
  H      -22.381    -278.355     296.116
  H      -21.408    -279.460     295.099
  H      -19.490    -283.666     290.221
  H      -18.979    -284.652     291.570
  H      -18.023    -283.273     291.085

 3  4  5  6  7  8  9  10  11  12  13  23  27  28  29  30  32 0
 6-311+G(2d,p)
 ****
 34  35 0
 6-311+G(2d,p)
 ****
 1  2  14  15  16  17  18  19  20  21  22  24  25  26 0
 3-21G
 ****
 31  33  36  37  38  39  40  41  42  43  44  45  46 0
 3-21G
 ****


