%nproc=1
%NoSave
%Mem=1900MB
#P OB98/GEN NMR

erre ene a

0 1
  C      -15.830       7.586      11.074
  O      -16.809       6.832      11.758
  H      -15.633       8.498      11.642
  H      -16.183       7.865      10.078
  H      -14.900       7.017      10.996
  P      -17.362       5.494      11.065
  C      -16.307       3.149      10.743
  O      -16.079       4.526      10.998
  C      -15.273       2.617       9.754
  O      -15.313       3.355       8.515
  C      -13.825       2.722      10.222
  O      -13.483       1.771      11.216
  C      -13.105       2.475       8.907
  O      -13.146       1.072       8.592
  C      -13.984       3.288       7.925
  N      -13.467       4.632       7.676
  C      -12.493       4.754       6.677
  O      -12.107       3.766       6.055
  N      -11.948       5.992       6.431
  C      -12.328       7.013       7.133
  N      -11.723       8.207       6.881
  C      -13.363       6.933       8.182
  C      -13.881       5.727       8.403
  O      -18.097       5.672       9.776
  O      -18.237       4.788      12.204
  H      -12.621       0.612       9.271
  H      -18.612       3.958      11.820
  H      -13.637       7.814       8.743
  H      -14.634       5.585       9.170
  H      -14.083       2.765       6.968
  H      -12.053       2.773       8.928
  H      -13.597       3.738      10.559
  H      -15.545       1.580       9.518
  H      -10.989       8.215       6.186
  H      -17.321       3.040      10.347
  H      -11.755       8.966       7.553
  H      -16.224       2.575      11.670
  P      -12.140       2.020      12.063
  C      -11.152       4.073      13.327
  O      -12.066       3.596      12.353
  O      -10.988       1.779      10.982
  O      -11.975       1.167      13.281
  H      -10.664       0.858      11.013
  H      -11.229       5.138      13.397
  H      -10.156       3.805      13.043
  H      -11.382       3.636      14.276

 6  7  8  9  10  11  12  13  14  15  16  26  30  31  32  33  35 0
 6-311+G(2d,p)
 ****
 37  38 0
 6-311+G(2d,p)
 ****
 1  2  3  4  5  17  18  19  20  21  22  23  24  25 0
 3-21G
 ****
 27  28  29  34  36  39  40  41  42  43  44  45  46 0
 3-21G
 ****


