%nproc=1
%NoSave
%Mem=1900MB
#P OB98/GEN NMR

erre ene a

0 1
  C      -64.961      34.492     388.569
  O      -65.023      35.068     389.854
  H      -65.361      33.471     388.584
  H      -65.560      35.095     387.881
  H      -63.924      34.476     388.215
  P      -64.288      34.263     391.034
  C      -63.497      36.427     392.221
  O      -64.271      35.236     392.309
  C      -64.153      37.541     393.029
  O      -65.343      38.013     392.364
  C      -64.608      37.134     394.424
  O      -63.525      37.090     395.348
  C      -65.577      38.265     394.748
  O      -64.844      39.422     395.185
  C      -66.229      38.538     393.385
  N      -71.303      39.366     393.320
  C      -70.256      40.209     393.497
  N      -68.938      39.916     393.515
  C      -68.736      38.606     393.297
  C      -69.699      37.631     393.096
  C      -71.043      38.049     393.121
  N      -72.102      37.190     392.949
  N      -69.122      36.397     392.902
  C      -67.825      36.617     392.982
  N      -67.542      37.935     393.226
  O      -62.756      34.230     390.566
  O      -64.808      32.885     391.290
  H      -64.570      39.249     396.109
  H      -62.356      33.381     390.838
  H      -70.506      41.248     393.652
  H      -67.059      35.854     392.856
  H      -66.326      39.618     393.197
  H      -66.290      38.009     395.541
  H      -65.154      36.182     394.408
  H      -63.445      38.384     393.082
  H      -63.431      36.738     391.170
  H      -73.014      37.576     392.778
  H      -71.898      36.207     392.793
  H      -62.489      36.229     392.597
  P      -63.105      35.652     395.928
  C      -60.705      36.539     396.384
  O      -61.878      35.939     396.923
  O      -62.407      34.941     394.674
  O      -64.227      34.838     396.473
  H      -62.468      33.970     394.764
  H      -59.981      36.667     397.161
  H      -60.952      37.493     395.966
  H      -60.301      35.908     395.620

 6  7  8  9  10  11  12  13  14  15  25  28  32  33  34  35 0
 6-311+G(2d,p)
 ****
 36  39  40 0
 6-311+G(2d,p)
 ****
 1  2  3  4  5  16  17  18  19  20  21  22  23  24 0
 3-21G
 ****
 26  27  29  30  31  37  38  41  42  43  44  45  46  47  48 0
 3-21G
 ****


