%nproc=1
%NoSave
%Mem=1900MB
#P OB98/GEN NMR

erre ene a

0 1
  C     -161.950     326.905    -357.383
  O     -160.846     326.272    -356.765
  H     -162.805     326.224    -357.351
  H     -161.730     327.145    -358.427
  H     -162.209     327.818    -356.840
  P     -159.400     326.960    -356.911
  C     -158.334     325.248    -355.293
  O     -158.338     325.788    -356.615
  C     -157.367     324.062    -355.196
  O     -157.957     322.886    -355.789
  C     -156.058     324.275    -355.943
  O     -155.214     325.251    -355.363
  C     -155.550     322.853    -356.122
  O     -154.801     322.370    -355.010
  C     -156.875     322.053    -356.252
  N     -157.096     321.576    -357.611
  C     -156.509     320.352    -357.927
  O     -155.824     319.699    -357.137
  N     -156.705     319.911    -359.207
  C     -157.371     320.585    -360.192
  O     -157.475     320.152    -361.339
  C     -157.945     321.881    -359.807
  C     -157.784     322.316    -358.550
  O     -159.182     328.196    -356.088
  O     -159.251     327.201    -358.484
  H     -153.951     322.851    -355.003
  H     -158.532     327.850    -358.678
  H     -156.301     319.022    -359.455
  H     -158.475     322.452    -360.563
  H     -158.198     323.270    -358.242
  H     -156.849     321.176    -355.590
  H     -154.905     322.764    -357.001
  H     -156.303     324.644    -356.948
  H     -157.187     323.853    -354.134
  H     -159.347     324.898    -355.075
  H     -158.060     326.024    -354.575
  P     -154.680     326.533    -356.157
  C     -155.058     328.387    -354.379
  O     -154.117     327.590    -355.085
  O     -155.535     327.030    -357.279
  O     -153.321     325.957    -356.812
  H     -153.206     326.383    -357.683
  H     -154.540     329.038    -353.706
  H     -155.718     327.753    -353.825
  H     -155.624     328.970    -355.075

 6  7  8  9  10  11  12  13  14  15  16  26  31  32  33  34  35 0
 6-311+G(2d,p)
 ****
 36  37 0
 6-311+G(2d,p)
 ****
 1  2  3  4  5  17  18  19  20  21  22  23  24  25 0
 3-21G
 ****
 27  28  29  30  38  39  40  41  42  43  44  45 0
 3-21G
 ****


