%nproc=1
%NoSave
%Mem=1900MB
#P OB98/GEN NMR

erre ene a

0 1
  C       11.694    -813.714    -504.067
  O       10.586    -812.927    -503.607
  P       10.676    -811.997    -502.303
  C       11.304    -809.557    -501.719
  O       10.934    -810.476    -502.746
  C       11.678    -808.185    -502.296
  O       12.759    -808.303    -503.238
  C       10.549    -807.478    -503.047
  O        9.599    -806.933    -502.154
  C       11.338    -806.449    -503.857
  O       11.652    -805.287    -503.056
  C       12.627    -807.232    -504.199
  N       12.623    -807.740    -505.562
  C       12.393    -806.793    -506.573
  O       12.162    -805.619    -506.296
  N       12.423    -807.207    -507.887
  C       12.584    -808.472    -508.150
  N       12.599    -808.828    -509.467
  C       12.729    -809.519    -507.114
  C       12.742    -809.072    -505.854
  O       11.627    -812.492    -501.257
  O        9.179    -811.954    -501.718
  H       10.803    -804.908    -502.774
  H        9.219    -811.865    -500.750
  H       12.828    -810.556    -507.381
  H       12.853    -809.773    -505.038
  H       13.510    -806.598    -504.056
  H       10.793    -806.106    -504.739
  H       10.066    -808.182    -503.725
  H       12.035    -807.560    -501.457
  H       12.507    -808.095    -510.155
  H       12.170    -809.971    -501.180
  H       12.717    -809.783    -509.784
  H       10.467    -809.462    -501.015
  P        8.095    -807.469    -502.157
  C        6.818    -809.526    -501.280
  O        8.089    -808.907    -501.458
  O        7.386    -807.396    -503.473
  O        7.354    -806.544    -501.064
  H        6.419    -806.434    -501.330
  H        6.959    -810.602    -501.201
  H        6.174    -809.326    -502.150
  H        6.355    -809.145    -500.380
  H       11.409    -814.251    -504.947
  H       11.981    -814.407    -503.304
  H       12.519    -813.071    -504.293

 3  4  5  6  7  8  9  10  11  12  13  23  27  28  29  30  32 0
 6-311+G(2d,p)
 ****
 34  35 0
 6-311+G(2d,p)
 ****
 1  2  14  15  16  17  18  19  20  21  22  24  25  26 0
 3-21G
 ****
 31  33  36  37  38  39  40  41  42  43  44  45  46 0
 3-21G
 ****


