%nproc=1
%NoSave
%Mem=1900MB
#P OB98/GEN NMR

erre ene a

0 1
  C     -553.265     -46.785    -538.366
  O     -552.118     -46.217    -537.763
  H     -554.164     -46.530    -537.792
  H     -553.369     -46.371    -539.377
  H     -553.157     -47.872    -538.434
  P     -551.847     -46.616    -536.238
  C     -549.501     -47.703    -536.476
  O     -550.897     -47.913    -536.264
  C     -548.905     -48.878    -537.256
  O     -549.558     -48.997    -538.547
  C     -547.423     -48.754    -537.547
  O     -546.622     -49.095    -536.429
  C     -547.273     -49.789    -538.675
  O     -547.188     -51.105    -538.106
  C     -548.600     -49.623    -539.443
  N     -547.087     -49.522    -544.359
  C     -547.051     -50.506    -543.417
  N     -547.467     -50.452    -542.134
  C     -547.970     -49.240    -541.839
  C     -548.049     -48.139    -542.678
  C     -547.580     -48.308    -543.981
  N     -547.600     -47.298    -544.924
  N     -548.626     -47.074    -542.034
  C     -548.880     -47.510    -540.811
  N     -548.483     -48.819    -540.636
  O     -553.254     -47.207    -535.751
  O     -551.390     -45.502    -535.359
  H     -547.047     -51.717    -538.854
  H     -553.396     -46.957    -534.809
  H     -546.667     -51.462    -543.748
  H     -549.348     -46.924    -540.030
  H     -549.024     -50.602    -539.721
  H     -546.386     -49.630    -539.281
  H     -547.171     -47.767    -537.933
  H     -549.128     -49.804    -536.689
  H     -548.997     -47.628    -535.507
  H     -547.438     -47.546    -545.898
  H     -547.989     -46.401    -544.657
  H     -549.372     -46.771    -537.026
  P     -545.718     -47.937    -535.787
  C     -545.467     -48.409    -533.235
  O     -546.228     -47.778    -534.264
  O     -546.263     -46.605    -536.493
  O     -544.252     -48.102    -535.974
  H     -545.589     -45.914    -536.503
  H     -545.923     -48.218    -532.286
  H     -544.471     -48.018    -533.237
  H     -545.437     -49.464    -533.410

 6  7  8  9  10  11  12  13  14  15  25  28  32  33  34  35 0
 6-311+G(2d,p)
 ****
 36  39  40 0
 6-311+G(2d,p)
 ****
 1  2  3  4  5  16  17  18  19  20  21  22  23  24 0
 3-21G
 ****
 26  27  29  30  31  37  38  41  42  43  44  45  46  47  48 0
 3-21G
 ****


