%nproc=1
%NoSave
%Mem=1900MB
#P OB98/GEN NMR

erre ene a

0 1
  C       94.824     175.493     -81.850
  O       94.189     176.667     -81.383
  H       94.095     174.679     -81.853
  H       95.645     175.229     -81.180
  H       95.200     175.633     -82.867
  P       94.971     178.051     -81.607
  C       94.793     178.705     -79.101
  O       95.648     178.425     -80.199
  C       94.460     180.192     -79.056
  O       93.571     180.476     -77.955
  C       95.671     181.103     -78.876
  O       96.320     181.359     -80.113
  C       95.003     182.358     -78.341
  O       94.370     183.071     -79.425
  C       93.933     181.775     -77.406
  N       92.455     181.698     -72.554
  C       91.730     181.974     -73.697
  N       90.427     182.281     -73.521
  N       92.234     181.957     -74.904
  C       93.555     181.657     -74.926
  C       94.382     181.372     -73.862
  C       93.808     181.380     -72.537
  O       94.406     181.132     -71.493
  N       95.664     181.118     -74.275
  C       95.618     181.271     -75.583
  N       94.361     181.601     -76.028
  O       93.778     179.112     -81.749
  O       95.873     178.087     -82.793
  H       94.028     183.906     -79.057
  H       93.660     179.330     -82.693
  H       92.021     181.736     -71.649
  H       96.458     181.147     -76.251
  H       93.024     182.387     -77.381
  H       95.710     183.048     -77.878
  H       89.980     182.335     -72.619
  H       96.366     180.708     -78.126
  H       89.874     182.482     -74.346
  H       93.923     180.443     -79.981
  H       95.297     178.415     -78.173
  H       93.874     178.120     -79.207
  P       97.906     181.126     -80.200
  C       98.366     183.667     -79.954
  O       98.602     182.361     -79.446
  O       98.217     181.409     -81.745
  O       98.374     179.773     -79.789
  H       98.475     180.577     -82.189
  H       98.890     184.383     -79.355
  H       97.317     183.877     -79.925
  H       98.713     183.725     -80.964

 6  7  8  9  10  11  12  13  14  15  26  29  33  34 0
 6-311+G(2d,p)
 ****
 36  38  39  40  41 0
 6-311+G(2d,p)
 ****
 1  2  3  4  5  16  17  18  19  20  21  22  23  24  25 0
 3-21G
 ****
 27  28  30  31  32  35  37  42  43  44  45  46  47 0
 3-21G
 ****
 48  49 0
 3-21G
 ****


