%nproc=1
%NoSave
%Mem=1900MB
#P OB98/GEN NMR

erre ene a

0 1
  C     -332.412     991.670    -180.351
  O     -331.400     991.588    -181.346
  P     -330.705     992.960    -181.824
  C     -330.497     992.380    -184.347
  O     -329.824     992.577    -183.097
  C     -329.636     992.843    -185.505
  O     -329.421     994.282    -185.407
  C     -328.235     992.241    -185.562
  O     -328.247     990.927    -186.143
  C     -327.510     993.233    -186.452
  O     -327.799     992.945    -187.840
  C     -328.135     994.573    -186.052
  N     -324.957     998.478    -185.563
  C     -325.588     997.989    -186.681
  N     -325.375     998.647    -187.837
  N     -326.369     996.929    -186.679
  C     -326.547     996.408    -185.443
  C     -325.970     996.806    -184.245
  C     -325.060     997.927    -184.293
  O     -324.429     998.370    -183.334
  N     -326.403     996.023    -183.209
  C     -327.256     995.182    -183.753
  N     -327.351     995.348    -185.112
  O     -329.619     993.229    -180.680
  O     -331.639     994.120    -181.977
  H     -327.326     993.618    -188.373
  H     -329.419     994.182    -180.630
  H     -324.386     999.305    -185.623
  H     -327.810     994.418    -183.193
  H     -328.363     995.197    -186.914
  H     -326.420     993.195    -186.324
  H     -324.892     999.533    -187.890
  H     -327.771     992.237    -184.568
  H     -325.853     998.330    -188.668
  H     -330.180     992.647    -186.436
  H     -331.437     992.939    -184.341
  H     -330.729     991.316    -184.447
  P     -327.780     989.718    -185.179
  C     -326.149     988.252    -186.591
  O     -327.492     988.510    -186.176
  O     -329.132     989.307    -184.444
  O     -326.699     990.077    -184.219
  H     -328.941     988.884    -183.576
  H     -325.458     988.442    -185.739
  H     -325.906     988.880    -187.428
  H     -326.075     987.199    -186.863
  H     -332.780     990.689    -180.135
  H     -333.215     992.281    -180.708
  H     -332.003     992.102    -179.461

 3  4  5  6  7  8  9  10  11  12  23  26  30  31  33  0
 6-311+G(2d,p)
 ****
 35  36  37  38 0
 6-311+G(2d,p)
 ****
 1  2  13  14  15  16  17  18  19  20  21  22  24  25  27  28  29 0
 3-21G
 ****
 32  34  39  40  41  42  43  44  45  46  47  48  49 0
 3-21G
 ****


