%nproc=1
%NoSave
%Mem=1900MB
#P OB98/GEN NMR

erre ene a

0 1
  C      -20.015      97.577     -51.621
  O      -21.224      98.054     -51.027
  P      -22.595      97.273     -51.307
  C      -21.822      94.917     -50.598
  O      -22.685      96.009     -50.321
  C      -21.308      94.276     -49.299
  O      -20.644      95.281     -48.485
  C      -22.428      93.650     -48.456
  O      -22.151      92.305     -48.067
  C      -22.616      94.643     -47.322
  O      -23.195      94.061     -46.165
  C      -21.215      95.246     -47.165
  N      -21.256      96.573     -46.543
  C      -21.051      96.625     -45.170
  O      -20.918      95.622     -44.471
  N      -21.065      97.874     -44.608
  C      -21.338      99.040     -45.259
  O      -21.385     100.129     -44.701
  C      -21.612      98.916     -46.700
  C      -21.559      97.708     -47.265
  O      -22.896      96.981     -52.738
  O      -23.700      98.264     -50.689
  H      -23.432      94.781     -45.541
  H      -24.481      98.248     -51.277
  H      -20.900      97.930     -43.614
  H      -21.854      99.817     -47.244
  H      -21.768      97.586     -48.319
  H      -20.584      94.611     -46.534
  H      -23.301      95.431     -47.664
  H      -23.360      93.572     -49.026
  H      -20.571      93.518     -49.581
  H      -20.969      95.268     -51.181
  H      -22.345      94.192     -51.229
  P      -23.081      91.051     -48.416
  C      -22.166      90.605     -50.799
  O      -22.310      90.132     -49.475
  O      -24.495      91.369     -48.770
  O      -23.032      90.182     -47.069
  H      -23.919      89.818     -46.890
  H      -21.969      89.753     -51.455
  H      -21.315      91.291     -50.850
  H      -23.070      91.114     -51.141
  H      -19.202      98.210     -51.332
  H      -20.113      97.586     -52.686
  H      -19.824      96.578     -51.289

 3  4  5  6  7  8  9  10  11  12  13  23  28  29  30  31  32 0
 6-311+G(2d,p)
 ****
 33  34 0
 6-311+G(2d,p)
 ****
 1  2  14  15  16  17  18  19  20  21  22  24  25  26  27 0
 3-21G
 ****
 35  36  37  38  39  40  41  42  43  44  45 0
 3-21G
 ****


