%nproc=1
%NoSave
%Mem=1900MB
#P OB98/GEN NMR

erre ene a

0 1
  C       30.760      96.135     324.634
  O       31.878      95.714     325.395
  P       32.640      94.369     324.963
  C       31.338      92.817     326.638
  O       31.647      93.154     325.297
  C       31.839      91.406     326.961
  O       31.090      90.447     326.159
  C       33.331      91.180     326.671
  O       33.823      90.279     327.673
  C       33.311      90.501     325.314
  O       34.494      89.762     325.054
  C       32.045      89.646     325.434
  N       31.495      89.231     324.144
  C       32.015      88.083     323.556
  O       32.922      87.412     324.043
  N       31.468      87.737     322.342
  C       30.526      88.449     321.654
  O       30.086      88.099     320.562
  C       30.050      89.675     322.304
  C       30.540      90.001     323.502
  O       33.769      94.276     326.088
  O       33.149      94.396     323.559
  H       33.465      94.586     326.958
  H       34.337      89.209     324.266
  H       31.803      86.891     321.911
  H       29.315      90.274     321.778
  H       30.207      90.903     324.003
  H       32.251      88.760     326.049
  H       33.208      91.260     324.529
  H       33.908      92.108     326.691
  H       31.613      91.198     328.013
  H       30.251      92.856     326.777
  H       31.791      93.554     327.309
  P       35.371      90.393     328.106
  C       35.960      88.216     326.774
  O       36.225      89.578     327.023
  O       35.386      89.416     329.382
  O       35.838      91.778     328.427
  H       34.952      88.564     329.205
  H       36.391      87.944     325.805
  H       34.882      88.018     326.742
  H       36.423      87.599     327.551
  H       30.368      97.040     325.048
  H       30.006      95.376     324.658
  H       31.062      96.307     323.622

 3  4  5  6  7  8  9  10  11  12  13  24  28  29  30  31  32 0
 6-311+G(2d,p)
 ****
 33  34 0
 6-311+G(2d,p)
 ****
 1  2  14  15  16  17  18  19  20  21  22  23  25  26  27 0
 3-21G
 ****
 35  36  37  38  39  40  41  42  43  44  45 0
 3-21G
 ****


