%nproc=1
%NoSave
%Mem=1900MB
#P OB98/GEN NMR

erre ene a

0 1
  C     -175.737      75.498      -0.547
  O     -176.006      76.639       0.240
  H     -176.532      75.388      -1.289
  H     -175.722      74.603       0.081
  H     -174.784      75.601      -1.071
  P     -174.899      77.133       1.286
  C     -174.227      76.521       3.703
  O     -175.155      76.327       2.647
  C     -174.920      76.402       5.066
  O     -175.774      77.572       5.256
  C     -175.820      75.158       5.211
  O     -175.811      74.794       6.598
  C     -177.164      75.728       4.796
  O     -178.233      74.866       5.094
  C     -177.103      77.074       5.530
  N     -178.109      78.051       5.132
  C     -179.241      78.176       5.933
  O     -179.450      77.524       6.955
  N     -180.164      79.099       5.516
  C     -180.063      79.898       4.416
  O     -180.908      80.729       4.110
  C     -178.850      79.715       3.606
  C     -177.939      78.819       3.997
  O     -174.768      78.611       1.443
  O     -173.543      76.477       0.738
  H     -173.021      77.153       0.265
  H     -178.385      74.869       6.065
  H     -180.988      79.206       6.086
  H     -178.741      80.324       2.719
  H     -177.030      78.669       3.426
  H     -177.167      76.913       6.611
  H     -177.191      75.874       3.714
  H     -175.481      74.311       4.609
  H     -174.159      76.433       5.854
  H     -173.793      77.522       3.597
  H     -173.429      75.777       3.622
  P     -175.179      73.426       7.149
  C     -175.859      70.929       7.245
  O     -176.274      72.264       6.975
  O     -174.626      73.527       8.533
  O     -174.035      73.036       6.099
  H     -173.355      72.495       6.542
  H     -176.681      70.262       7.091
  H     -175.527      70.857       8.260
  H     -175.057      70.665       6.588

 6  7  8  9  10  11  12  13  14  15  16  27  31  32  33  34  35 0
 6-311+G(2d,p)
 ****
 36  37 0
 6-311+G(2d,p)
 ****
 1  2  3  4  5  17  18  19  20  21  22  23  24  25 0
 3-21G
 ****
 26  28  29  30  38  39  40  41  42  43  44  45 0
 3-21G
 ****


