%nproc=1
%NoSave
%Mem=1900MB
#P OB98/GEN NMR

erre ene a

0 1
  C      -13.216    -899.150     247.602
  O      -12.831    -898.140     246.677
  P      -11.692    -898.520     245.602
  C      -10.889    -897.340     243.399
  O      -11.908    -897.520     244.364
  C      -10.704    -895.830     243.110
  O      -11.930    -895.280     242.584
  C      -10.379    -894.990     244.342
  O       -9.030    -895.130     244.735
  C      -10.765    -893.600     243.858
  O       -9.724    -893.050     243.037
  C      -12.014    -893.900     242.993
  N      -13.273    -893.620     243.669
  C      -13.959    -892.480     243.270
  O      -13.539    -891.730     242.387
  N      -15.129    -892.210     243.927
  C      -15.647    -892.920     244.978
  O      -16.678    -892.610     245.559
  C      -14.861    -894.100     245.383
  C      -13.731    -894.390     244.730
  O      -12.238    -899.930     245.077
  O      -10.316    -898.550     246.180
  H      -13.209    -900.000     245.165
  H       -8.980    -892.850     243.632
  H      -15.654    -891.400     243.639
  H      -15.223    -894.690     246.222
  H      -13.138    -895.250     245.023
  H      -11.984    -893.310     242.067
  H      -10.956    -892.890     244.678
  H      -11.034    -895.280     245.180
  H       -9.927    -895.720     242.352
  H      -11.167    -897.840     242.475
  H       -9.953    -897.760     243.773
  P       -8.495    -894.130     245.883
  C       -6.427    -894.230     247.476
  O       -7.362    -894.940     246.682
  O       -9.758    -894.130     246.878
  O       -8.109    -892.790     245.371
  H      -10.140    -895.010     247.007
  H       -5.998    -894.920     248.206
  H       -6.903    -893.400     248.026
  H       -5.633    -893.830     246.842
  H      -13.974    -898.767     248.253
  H      -12.366    -899.447     248.180
  H      -13.598    -899.995     247.069

 3  4  5  6  7  8  9  10  11  12  13  24  28  29  30  31  32 0
 6-311+G(2d,p)
 ****
 33  34 0
 6-311+G(2d,p)
 ****
 1  2  14  15  16  17  18  19  20  21  22  23  25  26  27 0
 3-21G
 ****
 35  36  37  38  39  40  41  42  43  44  45 0
 3-21G
 ****


