%nproc=1
%NoSave
%Mem=1900MB
#P OB98/GEN NMR

erre ene a

0 1
  C      -63.381      95.661    -644.796
  O      -64.337      94.602    -644.765
  P      -65.845      95.026    -644.392
  C      -65.893      93.967    -642.020
  O      -65.928      95.165    -642.789
  C      -66.768      94.090    -640.771
  O      -66.410      95.281    -639.997
  C      -68.279      94.193    -641.077
  O      -68.971      93.512    -640.019
  C      -68.505      95.706    -641.002
  O      -69.882      96.050    -640.880
  C      -67.623      96.027    -639.793
  N      -68.907     100.322    -637.339
  C      -69.391      99.060    -637.258
  N      -68.989      97.966    -637.953
  C      -67.988      98.284    -638.787
  C      -67.397      99.521    -638.983
  C      -67.894     100.582    -638.209
  N      -67.436     101.878    -638.289
  N      -66.402      99.449    -639.955
  C      -66.467      98.200    -640.398
  N      -67.346      97.443    -639.662
  O      -66.697      93.711    -644.704
  O      -66.330      96.228    -645.146
  H      -70.012      96.984    -641.149
  H      -67.132      93.790    -645.579
  H      -70.199      98.908    -636.539
  H      -65.900      97.797    -641.222
  H      -68.074      95.701    -638.846
  H      -68.131      96.186    -641.906
  H      -68.555      93.758    -642.044
  H      -66.586      93.213    -640.128
  H      -64.864      93.748    -641.711
  H      -67.857     102.566    -637.685
  H      -66.689     102.112    -638.941
  H      -66.209      93.121    -642.649
  P      -69.001      91.900    -640.042
  C      -71.026      91.976    -641.619
  O      -69.696      91.539    -641.446
  O      -70.199      91.621    -639.014
  O      -67.719      91.203    -639.695
  H      -70.984      92.158    -639.234
  H      -71.350      91.734    -642.632
  H      -71.086      93.067    -641.476
  H      -71.699      91.480    -640.901
  H      -62.420      95.267    -645.053
  H      -63.331      96.124    -643.833
  H      -63.676      96.386    -645.526

 3  4  5  6  7  8  9  10  11  12  22  25  29  30  31  32 0
 6-311+G(2d,p)
 ****
 33  36  37 0
 6-311+G(2d,p)
 ****
 1  2  13  14  15  16  17  18  19  20  21  23  24  26 0
 3-21G
 ****
 27  28  34  35  38  39  40  41  42  43  44  45  46  47  48 0
 3-21G
 ****


