%nproc=1
%NoSave
%Mem=1900MB
#P OB98/GEN NMR

erre ene a

0 1
  C      210.504    -265.238     320.371
  O      209.305    -265.962     320.183
  P      208.269    -265.550     319.034
  C      207.718    -263.284     320.094
  O      207.198    -264.540     319.686
  C      206.647    -262.191     320.016
  O      207.243    -260.920     320.409
  C      206.027    -261.995     318.628
  O      204.659    -261.625     318.835
  C      206.798    -260.807     318.077
  O      206.117    -260.147     317.017
  C      206.966    -259.978     319.343
  N      208.220    -255.205     318.011
  C      207.055    -255.879     317.940
  N      206.811    -257.157     318.289
  C      207.923    -257.749     318.762
  C      209.195    -257.197     318.869
  C      209.322    -255.848     318.482
  N      210.497    -255.134     318.580
  N      210.083    -258.139     319.346
  C      209.371    -259.230     319.519
  N      208.046    -259.020     319.242
  O      207.672    -266.687     318.274
  O      209.122    -264.596     318.070
  H      206.639    -259.364     316.754
  H      209.342    -265.072     317.242
  H      206.210    -255.317     317.554
  H      209.753    -260.184     319.845
  H      206.049    -259.433     319.603
  H      207.766    -261.150     317.689
  H      206.094    -262.883     317.980
  H      205.867    -262.425     320.758
  H      208.547    -263.025     319.426
  H      210.443    -254.145     318.406
  H      211.244    -255.499     319.164
  H      208.110    -263.356     321.121
  P      203.518    -262.178     317.851
  C      203.487    -260.025     316.454
  O      202.737    -260.901     317.287
  O      202.658    -263.260     318.407
  O      204.348    -262.683     316.567
  H      203.789    -263.286     316.035
  H      204.107    -259.371     317.081
  H      202.800    -259.414     315.869
  H      204.134    -260.592     315.776
  H      211.056    -265.666     321.182
  H      210.273    -264.218     320.596
  H      211.091    -265.282     319.477

 3  4  5  6  7  8  9  10  11  12  22  25  29  30  31  32 0
 6-311+G(2d,p)
 ****
 33  36  37 0
 6-311+G(2d,p)
 ****
 1  2  13  14  15  16  17  18  19  20  21  23  24  26 0
 3-21G
 ****
 27  28  34  35  38  39  40  41  42  43  44  45  46  47  48 0
 3-21G
 ****


