%nproc=1
%NoSave
%Mem=1900MB
#P OB98/GEN NMR

erre ene a

0 1
  C      -12.607    -115.013    -559.623
  O      -11.288    -115.227    -560.136
  P      -10.369    -116.266    -559.323
  C       -8.446    -116.125    -557.587
  O       -9.440    -115.414    -558.321
  C       -7.748    -115.208    -556.566
  O       -6.958    -114.188    -557.241
  C       -8.714    -114.482    -555.624
  O       -8.059    -114.366    -554.355
  C       -8.817    -113.100    -556.255
  O       -9.315    -112.136    -555.325
  C       -7.373    -112.906    -556.695
  N       -4.982    -108.560    -557.662
  C       -5.000    -109.328    -556.515
  N       -4.231    -108.900    -555.490
  N       -5.712    -110.423    -556.387
  C       -6.399    -110.752    -557.507
  C       -6.450    -110.082    -558.712
  C       -5.686    -108.852    -558.829
  O       -5.629    -108.142    -559.821
  N       -7.240    -110.736    -559.619
  C       -7.716    -111.770    -558.945
  N       -7.196    -111.847    -557.674
  O       -9.343    -116.791    -560.436
  O      -11.137    -117.379    -558.696
  H       -9.615    -111.358    -555.835
  H       -9.625    -117.668    -560.760
  H       -4.428    -107.723    -557.705
  H       -8.419    -112.492    -559.319
  H       -6.705    -112.661    -555.859
  H       -9.494    -113.124    -557.115
  H       -3.624    -108.101    -555.543
  H       -9.691    -114.968    -555.512
  H       -4.192    -109.471    -554.648
  H       -7.053    -115.820    -555.980
  H       -7.703    -116.527    -558.274
  H       -8.909    -116.986    -557.095
  P       -8.747    -115.079    -553.098
  C      -10.807    -114.608    -551.598
  O       -9.890    -114.106    -552.549
  O       -7.611    -114.994    -551.960
  O       -9.154    -116.504    -553.328
  H       -7.605    -115.822    -551.443
  H      -11.186    -113.773    -550.993
  H      -10.341    -115.342    -550.933
  H      -11.650    -115.073    -552.118
  H      -13.120    -114.307    -560.242
  H      -12.544    -114.633    -558.625
  H      -13.143    -115.939    -559.618

 3  4  5  6  7  8  9  10  11  12  23  26  30  31 0
 6-311+G(2d,p)
 ****
 33  35  36  37  38 0
 6-311+G(2d,p)
 ****
 1  2  13  14  15  16  17  18  19  20  21  22  24  25 0
 3-21G
 ****
 27  28  29  32  34  39  40  41  42  43  44  45  46  47  48  49 0
 3-21G
 ****


