%nproc=1
%NoSave
%Mem=1900MB
#P OB98/GEN NMR

erre ene a

0 1
  C     -203.217     344.370    -132.492
  O     -202.816     343.624    -133.622
  H     -202.478     344.273    -131.694
  H     -203.293     345.424    -132.774
  H     -204.194     344.028    -132.139
  P     -202.608     342.048    -133.410
  C     -204.609     341.147    -134.788
  O     -204.061     341.366    -133.496
  C     -205.415     339.850    -134.798
  O     -204.518     338.753    -134.486
  C     -206.581     339.811    -133.795
  O     -207.814     339.571    -134.479
  C     -206.280     338.611    -132.910
  O     -207.439     337.844    -132.588
  C     -205.285     337.804    -133.734
  N     -204.163     333.040    -132.320
  C     -204.770     333.525    -133.425
  N     -204.943     334.810    -133.793
  C     -204.386     335.638    -132.893
  C     -203.715     335.295    -131.733
  C     -203.627     333.922    -131.445
  N     -203.056     333.431    -130.291
  N     -203.291     336.423    -131.058
  C     -203.738     337.433    -131.777
  N     -204.422     337.008    -132.885
  O     -202.231     341.933    -131.857
  O     -201.566     341.425    -134.278
  H     -207.936     338.353    -131.919
  H     -201.447     341.363    -131.751
  H     -205.179     332.779    -134.101
  H     -203.635     338.481    -131.522
  H     -205.782     337.133    -134.443
  H     -205.828     338.963    -131.975
  H     -206.658     340.728    -133.200
  H     -205.786     339.682    -135.816
  H     -203.800     341.067    -135.521
  H     -203.141     332.444    -130.110
  H     -202.755     334.086    -129.585
  H     -205.242     341.999    -135.056
  P     -209.059     340.504    -134.067
  C     -208.890     341.613    -136.416
  O     -209.019     341.800    -135.012
  O     -208.619     341.077    -132.638
  O     -210.363     339.782    -134.004
  H     -209.409     341.296    -132.109
  H     -208.879     342.566    -136.903
  H     -209.717     341.038    -136.777
  H     -207.977     341.095    -136.624

 6  7  8  9  10  11  12  13  14  15  25  28  32  33  34  35 0
 6-311+G(2d,p)
 ****
 36  39  40 0
 6-311+G(2d,p)
 ****
 1  2  3  4  5  16  17  18  19  20  21  22  23  24 0
 3-21G
 ****
 26  27  29  30  31  37  38  41  42  43  44  45  46  47  48 0
 3-21G
 ****


