%nproc=1
%NoSave
%Mem=1900MB
#P OB98/GEN NMR

erre ene a

0 1
  C     -319.187     277.834     599.600
  O     -320.218     278.748     599.302
  H     -318.249     278.214     599.180
  H     -319.394     276.857     599.153
  H     -319.064     277.730     600.684
  P     -321.714     278.387     599.751
  C     -321.438     279.597     602.015
  O     -321.725     278.368     601.355
  C     -322.605     279.985     602.933
  O     -322.847     278.872     603.833
  C     -322.295     281.231     603.777
  O     -323.292     282.243     603.667
  C     -322.026     280.660     605.162
  O     -322.278     281.549     606.233
  C     -322.868     279.379     605.185
  N     -322.396     278.365     606.120
  C     -322.823     278.466     607.444
  O     -323.589     279.327     607.875
  N     -322.340     277.506     608.293
  C     -321.489     276.490     607.965
  O     -321.095     275.660     608.773
  C     -321.054     276.451     606.562
  C     -321.520     277.374     605.716
  O     -322.310     277.183     599.107
  O     -322.547     279.713     599.404
  H     -321.775     282.369     606.058
  H     -323.052     279.575     598.579
  H     -322.653     277.562     609.249
  H     -320.372     275.669     606.270
  H     -321.217     277.375     604.672
  H     -323.911     279.610     605.440
  H     -320.965     280.384     605.222
  H     -321.389     281.733     603.421
  H     -323.505     280.118     602.323
  H     -321.290     280.364     601.248
  H     -320.523     279.495     602.604
  P     -322.994     283.808     603.530
  C     -322.751     284.031     600.927
  O     -322.127     284.033     602.203
  O     -322.524     284.482     604.774
  O     -324.433     284.428     603.148
  H     -324.463     285.325     603.549
  H     -322.014     284.196     600.169
  H     -323.484     284.810     600.887
  H     -323.226     283.086     600.764

 6  7  8  9  10  11  12  13  14  15  16  26  31  32  33  34  35 0
 6-311+G(2d,p)
 ****
 36  37 0
 6-311+G(2d,p)
 ****
 1  2  3  4  5  17  18  19  20  21  22  23  24  25 0
 3-21G
 ****
 27  28  29  30  38  39  40  41  42  43  44  45 0
 3-21G
 ****


