%nproc=1
%NoSave
%Mem=1900MB
#P OB98/GEN NMR

erre ene a

0 1
  C       22.178      16.958    -235.046
  O       21.848      18.307    -234.765
  P       21.045      18.601    -233.406
  C       22.579      20.704    -233.370
  O       21.325      20.131    -233.023
  C       22.482      22.227    -233.358
  O       22.045      22.687    -232.064
  C       23.798      22.948    -233.621
  O       24.141      22.905    -234.996
  C       23.466      24.338    -233.090
  O       22.688      25.062    -234.056
  C       22.606      24.011    -231.857
  N       22.521      25.188    -226.876
  C       21.602      25.344    -227.855
  N       21.707      25.026    -229.161
  C       22.908      24.488    -229.424
  C       23.951      24.287    -228.536
  C       23.724      24.660    -227.202
  N       24.665      24.505    -226.208
  N       25.039      23.733    -229.175
  C       24.656      23.590    -230.426
  N       23.372      24.018    -230.624
  O       21.874      17.786    -232.309
  O       19.603      18.202    -233.429
  H       22.363      25.874    -233.617
  H       21.284      17.432    -231.617
  H       20.656      25.780    -227.547
  H       25.267      23.180    -231.218
  H       21.770      24.708    -231.730
  H       24.355      24.937    -232.867
  H       24.604      22.502    -233.026
  H       21.730      22.525    -234.101
  H       22.865      20.376    -234.375
  H       24.476      24.933    -225.315
  H       25.604      24.244    -226.481
  H       23.337      20.354    -232.664
  P       25.692      22.719    -235.363
  C       24.925      22.192    -237.757
  O       25.749      23.007    -236.943
  O       25.854      21.132    -235.290
  O       26.634      23.510    -234.524
  H       25.152      20.670    -235.782
  H       25.019      22.526    -238.793
  H       23.879      22.281    -237.447
  H       25.248      21.149    -237.691
  H       22.708      16.906    -235.974
  H       21.281      16.378    -235.114
  H       22.794      16.571    -234.262

 3  4  5  6  7  8  9  10  11  12  22  25  29  30  31  32 0
 6-311+G(2d,p)
 ****
 33  36  37 0
 6-311+G(2d,p)
 ****
 1  2  13  14  15  16  17  18  19  20  21  23  24  26 0
 3-21G
 ****
 27  28  34  35  38  39  40  41  42  43  44  45  46  47  48 0
 3-21G
 ****


