%nproc=1
%NoSave
%Mem=1900MB
#P OB98/GEN NMR

erre ene a

0 1
  C     -696.026     651.472    -308.510
  O     -695.306     650.739    -307.509
  P     -693.759     651.099    -307.247
  C     -693.608     651.263    -304.679
  O     -693.672     651.979    -305.904
  C     -694.993     651.179    -304.025
  O     -695.911     650.378    -304.817
  C     -694.970     650.517    -302.653
  O     -694.424     651.394    -301.679
  C     -696.432     650.158    -302.467
  O     -697.182     651.299    -301.981
  C     -696.870     649.810    -303.895
  N     -697.013     648.381    -304.126
  C     -698.205     647.795    -303.660
  O     -699.038     648.479    -303.065
  N     -698.399     646.454    -303.860
  C     -697.492     645.749    -304.463
  N     -697.737     644.422    -304.641
  C     -696.219     646.326    -304.959
  C     -696.040     647.636    -304.734
  O     -693.015     651.643    -308.416
  O     -693.151     649.689    -306.766
  H     -696.972     652.040    -302.564
  H     -692.219     649.654    -307.044
  H     -695.494     645.694    -305.467
  H     -695.129     648.121    -305.066
  H     -697.839     650.274    -304.121
  H     -696.564     649.361    -301.727
  H     -694.366     649.590    -302.706
  H     -695.390     652.204    -303.939
  H     -698.612     644.066    -304.281
  H     -692.904     651.768    -304.006
  H     -697.116     643.805    -305.145
  H     -693.204     650.266    -304.871
  P     -692.854     651.252    -301.337
  C     -692.017     653.670    -301.799
  O     -692.062     652.302    -302.225
  O     -692.469     649.829    -301.999
  O     -692.538     651.254    -299.883
  H     -691.791     649.410    -301.460
  H     -691.200     654.169    -302.321
  H     -691.849     653.732    -300.708
  H     -692.961     654.152    -302.048
  H     -697.033     651.114    -308.559
  H     -695.553     651.338    -309.460
  H     -696.030     652.512    -308.257

 3  4  5  6  7  8  9  10  11  12  13  23  27  28  29  30  32 0
 6-311+G(2d,p)
 ****
 34  35 0
 6-311+G(2d,p)
 ****
 1  2  14  15  16  17  18  19  20  21  22  24  25  26 0
 3-21G
 ****
 31  33  36  37  38  39  40  41  42  43  44  45  46 0
 3-21G
 ****


