%nproc=1
%NoSave
%Mem=1900MB
#P OB98/GEN NMR

erre ene a

0 1
  C       25.634     283.753    -329.092
  O       24.854     283.709    -330.268
  H       26.651     283.427    -329.332
  H       25.222     283.079    -328.334
  H       25.671     284.774    -328.703
  P       23.294     284.047    -330.118
  C       22.468     283.517    -332.526
  O       22.512     283.115    -331.162
  C       22.500     282.284    -333.423
  O       23.713     281.528    -333.177
  C       21.361     281.304    -333.174
  O       20.148     281.714    -333.781
  C       21.923     280.041    -333.801
  O       21.694     280.002    -335.218
  C       23.429     280.151    -333.487
  N       23.823     279.254    -332.403
  C       25.069     278.650    -332.548
  O       25.811     278.841    -333.513
  N       25.425     277.771    -331.558
  C       24.655     277.413    -330.493
  O       25.012     276.577    -329.669
  C       23.339     278.072    -330.401
  C       22.986     278.943    -331.348
  O       23.177     285.511    -330.749
  O       22.773     283.997    -328.721
  H       23.053     286.168    -330.039
  H       22.014     280.861    -335.565
  H       26.324     277.326    -331.644
  H       22.701     277.807    -329.568
  H       22.020     279.433    -331.311
  H       24.024     279.899    -334.374
  H       21.462     279.153    -333.375
  H       21.231     281.141    -332.097
  H       22.506     282.613    -334.471
  H       23.337     284.146    -332.754
  H       21.559     284.103    -332.695
  P       18.787     281.488    -332.958
  C       17.021     281.689    -334.900
  O       17.744     280.862    -334.002
  O       18.309     283.003    -332.763
  O       18.987     280.717    -331.699
  H       18.639     283.583    -333.472
  H       16.383     281.083    -335.508
  H       17.707     282.223    -335.524
  H       16.428     282.386    -334.345

 6  7  8  9  10  11  12  13  14  15  16  27  31  32  33  34  35 0
 6-311+G(2d,p)
 ****
 36  37 0
 6-311+G(2d,p)
 ****
 1  2  3  4  5  17  18  19  20  21  22  23  24  25 0
 3-21G
 ****
 26  28  29  30  38  39  40  41  42  43  44  45 0
 3-21G
 ****


