%nproc=1
%NoSave
%Mem=1900MB
#P OB98/GEN NMR

erre ene a

0 1
  C     -291.073     366.254      24.430
  O     -290.617     367.057      23.363
  H     -290.549     366.551      25.342
  H     -290.852     365.201      24.227
  H     -292.148     366.390      24.583
  P     -291.365     366.904      21.951
  C     -290.098     364.988      20.736
  O     -291.220     365.365      21.519
  C     -290.189     363.518      20.333
  O     -290.131     362.702      21.529
  C     -291.486     363.166      19.586
  O     -291.177     362.214      18.561
  C     -292.347     362.504      20.648
  O     -293.317     361.612      20.097
  C     -291.283     361.829      21.532
  N     -291.784     361.596      22.886
  C     -292.374     360.351      23.128
  O     -292.465     359.514      22.219
  N     -292.901     360.102      24.368
  C     -292.918     361.041      25.258
  N     -293.486     360.734      26.459
  C     -292.369     362.390      25.024
  C     -291.816     362.594      23.832
  O     -290.389     367.664      20.935
  O     -292.757     367.434      21.904
  H     -292.843     360.843      19.712
  H     -290.890     368.073      20.205
  H     -292.434     363.148      25.797
  H     -291.390     363.554      23.568
  H     -290.977     360.871      21.097
  H     -292.880     363.275      21.222
  H     -291.976     364.037      19.142
  H     -289.315     363.267      19.727
  H     -293.864     359.802      26.580
  H     -289.189     365.142      21.327
  H     -293.595     361.402      27.214
  H     -290.042     365.627      19.847
  P     -290.394     362.771      17.272
  C     -292.481     362.983      15.736
  O     -291.421     363.650      16.408
  O     -290.173     361.459      16.386
  O     -289.105     363.442      17.603
  H     -289.228     361.200      16.399
  H     -293.075     363.699      15.207
  H     -293.091     362.472      16.451
  H     -292.075     362.276      15.043

 6  7  8  9  10  11  12  13  14  15  16  26  30  31  32  33  35 0
 6-311+G(2d,p)
 ****
 37  38 0
 6-311+G(2d,p)
 ****
 1  2  3  4  5  17  18  19  20  21  22  23  24  25 0
 3-21G
 ****
 27  28  29  34  36  39  40  41  42  43  44  45  46 0
 3-21G
 ****


