%nproc=1
%NoSave
%Mem=1900MB
#P OB98/GEN NMR

erre ene a

0 1
  C       83.088    -789.456      26.576
  O       84.383    -789.507      27.171
  P       85.577    -788.734      26.422
  C       86.437    -791.077      25.702
  O       86.105    -789.748      25.297
  C       85.798    -792.096      24.766
  O       84.398    -791.783      24.600
  C       86.378    -792.127      23.366
  O       87.579    -792.874      23.307
  C       85.257    -792.816      22.594
  O       85.361    -794.237      22.780
  C       83.999    -792.271      23.289
  N       81.140    -791.048      19.296
  C       81.587    -792.284      19.720
  N       81.201    -793.351      18.986
  N       82.358    -792.462      20.764
  C       82.633    -791.312      21.424
  C       82.246    -790.029      21.100
  C       81.439    -789.844      19.914
  O       81.062    -788.763      19.452
  N       82.713    -789.122      22.018
  C       83.341    -789.856      22.918
  N       83.350    -791.189      22.576
  O       86.745    -788.745      27.512
  O       85.250    -787.350      25.968
  H       86.281    -794.485      22.585
  H       87.350    -787.994      27.350
  H       80.533    -790.973      18.501
  H       83.810    -789.475      23.812
  H       83.270    -793.074      23.464
  H       85.298    -792.620      21.520
  H       80.507    -793.287      18.256
  H       86.519    -791.107      22.976
  H       81.481    -794.272      19.293
  H       85.871    -793.079      25.242
  H       86.065    -791.240      26.723
  H       87.529    -791.188      25.705
  P       88.929    -792.057      22.984
  C       89.665    -794.016      21.434
  O       89.433    -792.619      21.576
  O       89.981    -792.647      24.040
  O       88.782    -790.573      23.086
  H       90.669    -791.984      24.225
  H       88.924    -794.598      22.015
  H       90.668    -794.248      21.789
  H       89.571    -794.284      20.389
  H       82.397    -790.009      27.177
  H       83.129    -789.883      25.596
  H       82.766    -788.438      26.509

 3  4  5  6  7  8  9  10  11  12  23  26  30  31  33  0
 6-311+G(2d,p)
 ****
 35  36  37  38 0
 6-311+G(2d,p)
 ****
 1  2  13  14  15  16  17  18  19  20  21  22  24  25  27  28  29 0
 3-21G
 ****
 32  34  39  40  41  42  43  44  45  46  47  48  49 0
 3-21G
 ****


