%nproc=1
%NoSave
%Mem=1900MB
#P OB98/GEN NMR

erre ene a

0 1
  C     -127.015     217.289     231.724
  O     -127.594     218.594     231.667
  P     -128.831     218.945     232.628
  C     -128.452     219.849     235.005
  O     -128.402     220.139     233.613
  C     -127.470     220.702     235.817
  O     -126.136     220.657     235.237
  C     -127.861     222.183     235.934
  O     -127.461     222.626     237.237
  C     -127.003     222.830     234.860
  O     -126.876     224.236     235.035
  C     -125.715     222.015     235.009
  N     -124.846     222.122     233.847
  C     -123.641     222.807     234.009
  O     -123.395     223.382     235.073
  N     -122.760     222.854     232.953
  C     -123.122     222.390     231.799
  N     -122.217     222.435     230.781
  C     -124.461     221.821     231.542
  C     -125.254     221.696     232.604
  O     -129.467     217.772     233.302
  O     -129.864     219.664     231.632
  H     -126.260     224.588     234.359
  H     -130.777     219.434     231.904
  H     -124.747     221.521     230.546
  H     -126.249     221.291     232.524
  H     -125.150     222.338     235.898
  H     -127.458     222.656     233.875
  H     -128.935     222.360     235.807
  H     -127.396     220.269     236.827
  H     -121.311     222.848     230.966
  H     -128.217     218.787     235.162
  H     -122.405     222.043     229.866
  H     -129.480     219.986     235.365
  P     -128.586     223.147     238.260
  C     -129.499     221.376     239.933
  O     -128.465     222.279     239.604
  O     -129.924     222.549     237.599
  O     -128.703     224.631     238.415
  H     -130.688     223.099     237.880
  H     -129.134     220.687     240.700
  H     -129.815     220.792     239.064
  H     -130.361     221.926     240.338
  H     -126.208     217.226     231.024
  H     -127.758     216.558     231.480
  H     -126.645     217.106     232.711

 3  4  5  6  7  8  9  10  11  12  13  23  27  28  29  30  32 0
 6-311+G(2d,p)
 ****
 34  35 0
 6-311+G(2d,p)
 ****
 1  2  14  15  16  17  18  19  20  21  22  24  25  26 0
 3-21G
 ****
 31  33  36  37  38  39  40  41  42  43  44  45  46 0
 3-21G
 ****


