%nproc=1
%NoSave
%Mem=1900MB
#P OB98/GEN NMR

erre ene a

0 1
  C      476.861     807.110     164.848
  O      475.902     806.469     164.036
  H      477.208     806.404     165.613
  H      476.409     807.976     165.346
  H      477.721     807.432     164.249
  P      475.399     807.267     162.743
  C      472.838     806.816     163.110
  O      474.000     806.596     162.334
  C      472.083     805.507     163.356
  O      471.642     804.983     162.073
  C      472.930     804.422     164.020
  O      472.087     803.665     164.900
  C      473.372     803.545     162.859
  O      473.711     802.221     163.282
  C      472.142     803.639     161.939
  N      472.466     803.319     160.548
  C      472.448     801.963     160.196
  O      472.183     801.105     161.039
  N      472.781     801.609     158.906
  C      473.150     802.521     158.066
  N      473.496     802.106     156.817
  C      473.239     803.958     158.414
  C      472.883     804.271     159.651
  O      476.409     806.743     161.612
  O      475.372     808.754     162.906
  H      474.539     802.264     163.797
  H      476.551     805.782     161.637
  H      473.570     804.684     157.675
  H      472.902     805.314     159.992
  H      471.353     802.946     162.277
  H      474.249     803.970     162.373
  H      473.770     804.824     164.595
  H      471.189     805.727     163.936
  H      473.443     801.107     156.633
  H      472.170     807.531     162.614
  H      473.856     802.715     156.093
  H      473.149     807.259     164.076
  P      472.426     803.604     166.472
  C      472.001     801.093     166.992
  O      471.545     802.443     167.150
  O      472.415     804.911     167.183
  O      473.902     802.960     166.476
  H      474.420     803.423     167.164
  H      471.326     800.428     167.489
  H      472.978     800.994     167.418
  H      472.040     800.849     165.951

 6  7  8  9  10  11  12  13  14  15  16  26  30  31  32  33  35 0
 6-311+G(2d,p)
 ****
 37  38 0
 6-311+G(2d,p)
 ****
 1  2  3  4  5  17  18  19  20  21  22  23  24  25 0
 3-21G
 ****
 27  28  29  34  36  39  40  41  42  43  44  45  46 0
 3-21G
 ****


