%nproc=1
%NoSave
%Mem=1900MB
#P OB98/GEN NMR

erre ene a

0 1
  C      573.056     907.984    -200.593
  O      574.016     907.216    -201.287
  H      572.680     907.400    -199.750
  H      572.219     908.219    -201.261
  H      573.493     908.911    -200.213
  P      575.042     907.956    -202.263
  C      575.331     905.949    -203.866
  O      575.964     906.852    -202.960
  C      576.268     904.830    -204.319
  O      577.371     905.395    -205.056
  C      576.879     904.064    -203.128
  O      576.091     902.996    -202.660
  C      578.182     903.559    -203.719
  O      578.012     902.293    -204.380
  C      578.559     904.647    -204.748
  N      583.375     906.298    -205.249
  C      582.748     905.215    -205.867
  N      583.534     904.479    -206.685
  N      581.502     904.906    -205.676
  C      580.886     905.675    -204.753
  C      581.399     906.759    -204.070
  C      582.760     907.148    -204.347
  O      583.351     908.099    -203.840
  N      580.481     907.270    -203.190
  C      579.449     906.451    -203.272
  N      579.612     905.520    -204.278
  O      576.065     908.677    -201.258
  O      574.431     908.965    -203.198
  H      577.473     901.726    -203.806
  H      576.395     909.508    -201.652
  H      584.333     906.508    -205.461
  H      578.549     906.515    -202.670
  H      578.907     904.198    -205.691
  H      578.935     903.410    -202.946
  H      584.533     904.620    -206.798
  H      577.112     904.749    -202.312
  H      583.176     903.568    -207.007
  H      575.734     904.164    -204.999
  H      575.019     906.542    -204.723
  H      574.428     905.525    -203.410
  P      575.708     902.860    -201.113
  C      576.007     900.237    -201.000
  O      575.177     901.382    -200.845
  O      574.396     903.759    -200.982
  O      576.770     903.279    -200.157
  H      574.604     904.635    -200.632
  H      575.446     899.356    -200.769
  H      576.844     900.311    -200.338
  H      576.355     900.183    -202.010

 6  7  8  9  10  11  12  13  14  15  26  29  33  34 0
 6-311+G(2d,p)
 ****
 36  38  39  40  41 0
 6-311+G(2d,p)
 ****
 1  2  3  4  5  16  17  18  19  20  21  22  23  24  25 0
 3-21G
 ****
 27  28  30  31  32  35  37  42  43  44  45  46  47 0
 3-21G
 ****
 48  49 0
 3-21G
 ****


