%nproc=1
%NoSave
%Mem=1900MB
#P OB98/GEN NMR

erre ene a

0 1
  C     -859.050     -59.017    -821.313
  O     -860.268     -58.509    -820.799
  H     -858.682     -58.332    -822.082
  H     -859.223     -59.993    -821.769
  H     -858.297     -59.096    -820.523
  P     -860.808     -59.170    -819.442
  C     -862.781     -60.765    -818.856
  O     -861.946     -60.230    -819.877
  C     -864.114     -61.233    -819.450
  O     -864.912     -60.096    -819.858
  C     -863.974     -62.119    -820.687
  O     -863.737     -63.482    -820.321
  C     -865.344     -61.956    -821.306
  O     -866.309     -62.753    -820.590
  C     -865.622     -60.459    -821.071
  N     -867.143     -57.534    -824.939
  C     -867.880     -58.332    -824.083
  N     -869.217     -58.370    -824.296
  N     -867.359     -59.042    -823.110
  C     -866.010     -58.932    -823.035
  C     -865.166     -58.171    -823.821
  C     -865.764     -57.388    -824.875
  O     -865.145     -56.639    -825.651
  N     -863.853     -58.312    -823.434
  C     -863.904     -59.178    -822.430
  N     -865.196     -59.578    -822.149
  O     -861.642     -57.977    -818.766
  O     -859.761     -59.694    -818.514
  H     -866.271     -62.476    -819.650
  H     -861.102     -57.588    -818.047
  H     -867.583     -57.002    -825.672
  H     -863.049     -59.516    -821.876
  H     -866.687     -60.254    -820.900
  H     -865.378     -62.275    -822.352
  H     -869.680     -57.859    -825.047
  H     -863.204     -61.740    -821.376
  H     -869.774     -58.942    -823.697
  H     -864.673     -61.760    -818.653
  H     -862.974     -59.995    -818.101
  H     -862.265     -61.615    -818.386
  P     -862.874     -64.385    -821.330
  C     -863.430     -66.198    -823.101
  O     -863.879     -65.468    -821.979
  O     -861.975     -65.256    -820.327
  O     -862.024     -63.638    -822.316
  H     -861.035     -64.996    -820.397
  H     -864.198     -66.872    -823.418
  H     -862.554     -66.753    -822.838
  H     -863.198     -65.522    -823.897

 6  7  8  9  10  11  12  13  14  15  26  29  33  34 0
 6-311+G(2d,p)
 ****
 36  38  39  40  41 0
 6-311+G(2d,p)
 ****
 1  2  3  4  5  16  17  18  19  20  21  22  23  24  25 0
 3-21G
 ****
 27  28  30  31  32  35  37  42  43  44  45  46  47 0
 3-21G
 ****
 48  49 0
 3-21G
 ****


