%nproc=1
%NoSave
%Mem=1900MB
#P OB98/GEN NMR

erre ene a

0 1
  C       64.918     157.445     -59.683
  O       65.499     156.879     -60.846
  P       66.424     155.571     -60.757
  C       65.211     153.866     -62.250
  O       65.414     154.337     -60.923
  C       65.849     152.491     -62.422
  O       65.161     151.558     -61.555
  C       65.755     151.882     -63.820
  O       66.769     152.307     -64.719
  C       65.957     150.406     -63.499
  O       67.355     150.139     -63.292
  C       65.187     150.253     -62.185
  N       62.024     146.259     -61.729
  C       63.327     146.422     -61.408
  N       64.104     147.512     -61.578
  C       63.393     148.521     -62.104
  C       62.059     148.508     -62.477
  C       61.360     147.307     -62.269
  N       60.026     147.150     -62.576
  N       61.686     149.731     -62.999
  C       62.773     150.469     -62.928
  N       63.827     149.787     -62.387
  O       67.316     155.526     -59.565
  O       67.231     155.564     -62.137
  H       67.630     150.653     -62.509
  H       68.001     154.968     -62.069
  H       63.812     145.560     -60.958
  H       62.845     151.496     -63.257
  H       65.679     149.565     -61.487
  H       65.622     149.746     -64.305
  H       64.757     152.023     -64.251
  H       66.893     152.550     -62.092
  H       65.686     154.572     -62.942
  H       59.578     146.301     -62.273
  H       59.496     147.974     -62.825
  H       64.141     153.837     -62.470
  P       66.336     152.551     -66.249
  C       66.107     155.145     -65.998
  O       65.480     153.906     -66.243
  O       65.685     151.383     -66.902
  O       67.713     152.987     -66.940
  H       68.068     153.843     -66.652
  H       65.391     155.948     -66.197
  H       66.972     155.282     -66.650
  H       66.420     155.207     -64.952
  H       64.342     158.305     -59.954
  H       65.691     157.734     -59.002
  H       64.282     156.723     -59.214

 3  4  5  6  7  8  9  10  11  12  22  25  29  30  31  32 0
 6-311+G(2d,p)
 ****
 33  36  37 0
 6-311+G(2d,p)
 ****
 1  2  13  14  15  16  17  18  19  20  21  23  24  26 0
 3-21G
 ****
 27  28  34  35  38  39  40  41  42  43  44  45  46  47  48 0
 3-21G
 ****


