%nproc=1
%NoSave
%Mem=1900MB
#P OB98/GEN NMR

erre ene a

0 1
  C       19.022     293.434    -287.925
  O       19.060     293.348    -289.337
  H       18.172     294.061    -287.635
  H       19.934     293.892    -287.537
  H       18.892     292.442    -287.488
  P       20.310     292.609    -290.016
  C       19.225     292.407    -292.358
  O       20.250     293.002    -291.568
  C       19.004     293.221    -293.629
  O       18.329     294.458    -293.317
  C       20.301     293.616    -294.322
  O       20.856     292.518    -295.015
  C       19.822     294.763    -295.190
  O       19.178     294.287    -296.380
  C       18.807     295.459    -294.251
  N       19.377     296.601    -293.548
  C       19.622     297.741    -294.324
  O       19.354     297.745    -295.525
  N       20.186     298.836    -293.715
  C       20.463     298.805    -292.450
  N       21.019     299.923    -291.911
  C       20.209     297.631    -291.593
  C       19.670     296.573    -292.202
  O       20.449     291.138    -289.757
  O       21.572     293.436    -289.482
  H       19.857     293.779    -296.865
  H       21.900     293.055    -288.645
  H       20.447     297.653    -290.540
  H       19.450     295.668    -291.646
  H       17.933     295.803    -294.821
  H       20.647     295.405    -295.494
  H       21.011     294.014    -293.592
  H       18.354     292.643    -294.302
  H       21.184     300.703    -292.538
  H       18.316     292.396    -291.750
  H       21.194     300.047    -290.926
  H       19.484     291.373    -292.612
  P       22.447     292.298    -295.049
  C       22.543     289.958    -293.958
  O       22.648     290.706    -295.170
  O       23.206     292.958    -293.951
  O       22.852     292.816    -296.509
  H       22.829     293.806    -296.560
  H       22.694     288.919    -294.166
  H       21.570     290.099    -293.535
  H       23.286     290.295    -293.265

 6  7  8  9  10  11  12  13  14  15  16  26  30  31  32  33  35 0
 6-311+G(2d,p)
 ****
 37  38 0
 6-311+G(2d,p)
 ****
 1  2  3  4  5  17  18  19  20  21  22  23  24  25 0
 3-21G
 ****
 27  28  29  34  36  39  40  41  42  43  44  45  46 0
 3-21G
 ****


