%nproc=1
%NoSave
%Mem=1900MB
#P OB98/GEN NMR

erre ene a

0 1
  C     -193.497       1.327      -2.786
  O     -194.011       0.075      -3.206
  P     -193.018      -0.959      -3.923
  C     -194.011      -0.826      -6.352
  O     -193.821      -1.577      -5.167
  C     -194.833      -1.629      -7.364
  O     -195.111      -0.788      -8.520
  C     -194.147      -2.901      -7.877
  O     -195.171      -3.885      -8.082
  C     -193.563      -2.455      -9.207
  O     -193.307      -3.541     -10.086
  C     -194.653      -1.494      -9.690
  N     -194.188      -0.552     -10.708
  C     -194.264      -0.942     -12.042
  O     -194.678      -2.042     -12.411
  N     -193.814      -0.027     -12.957
  C     -193.245       1.181     -12.676
  O     -192.844       1.955     -13.536
  C     -193.148       1.522     -11.249
  C     -193.626       0.659     -10.348
  O     -192.983      -2.146      -2.853
  O     -191.688      -0.378      -4.264
  H     -193.837      -2.281      -2.406
  H     -192.682      -4.147      -9.643
  H     -193.894      -0.275     -13.933
  H     -192.690       2.468     -10.983
  H     -193.561       0.887      -9.291
  H     -195.508      -2.061     -10.079
  H     -192.614      -1.932      -9.031
  H     -193.398      -3.284      -7.178
  H     -195.801      -1.875      -6.905
  H     -193.037      -0.591      -6.793
  H     -194.508       0.119      -6.106
  P     -195.209      -5.158      -7.097
  C     -194.198      -6.948      -8.718
  O     -195.320      -6.467      -8.011
  O     -196.694      -5.009      -6.503
  O     -194.157      -5.164      -6.036
  H     -197.364      -4.866      -7.191
  H     -194.375      -7.993      -8.992
  H     -193.291      -6.896      -8.112
  H     -194.063      -6.364      -9.632
  H     -194.278       1.898      -2.329
  H     -193.115       1.858      -3.633
  H     -192.710       1.170      -2.079

 3  4  5  6  7  8  9  10  11  12  13  24  28  29  30  31  32 0
 6-311+G(2d,p)
 ****
 33  34 0
 6-311+G(2d,p)
 ****
 1  2  14  15  16  17  18  19  20  21  22  23  25  26  27 0
 3-21G
 ****
 35  36  37  38  39  40  41  42  43  44  45 0
 3-21G
 ****


