%nproc=1
%NoSave
%Mem=1900MB
#P OB98/GEN NMR

erre ene a

0 1
  C       43.738     -53.952     -35.057
  O       43.521     -53.150     -33.900
  P       42.788     -53.636     -32.571
  C       43.189     -52.196     -30.407
  O       42.511     -52.363     -31.645
  C       44.551     -51.516     -30.610
  O       44.332     -50.199     -31.201
  C       45.304     -51.301     -29.293
  O       46.695     -51.586     -29.378
  C       44.908     -49.886     -28.905
  O       45.795     -49.287     -27.972
  C       44.800     -49.202     -30.264
  N       44.028     -44.410     -28.685
  C       45.024     -45.297     -28.332
  N       45.929     -44.866     -27.428
  N       45.117     -46.510     -28.810
  C       44.108     -46.843     -29.642
  C       43.056     -46.057     -30.056
  C       42.990     -44.699     -29.561
  O       42.141     -43.865     -29.858
  N       42.232     -46.738     -30.916
  C       42.771     -47.936     -31.005
  N       43.919     -48.048     -30.255
  O       43.372     -54.837     -31.905
  O       41.309     -54.036     -33.076
  H       45.738     -49.792     -27.140
  H       41.012     -54.770     -32.501
  H       44.018     -43.479     -28.304
  H       42.385     -48.753     -31.605
  H       45.766     -48.837     -30.620
  H       43.924     -49.939     -28.422
  H       45.845     -43.993     -26.931
  H       44.948     -51.997     -28.525
  H       46.518     -45.587     -27.010
  H       45.140     -52.110     -31.317
  H       43.333     -53.205     -30.005
  H       42.572     -51.642     -29.699
  P       47.432     -53.000     -29.294
  C       49.183     -52.436     -31.080
  O       48.959     -52.806     -29.733
  O       46.820     -53.859     -30.496
  O       47.249     -53.721     -27.998
  H       46.366     -54.648     -30.140
  H       50.238     -52.597     -31.319
  H       48.945     -51.378     -31.215
  H       48.570     -53.040     -31.755
  H       44.252     -53.377     -35.799
  H       42.796     -54.277     -35.447
  H       44.329     -54.804     -34.794

 3  4  5  6  7  8  9  10  11  12  23  26  30  31 0
 6-311+G(2d,p)
 ****
 33  35  36  37  38 0
 6-311+G(2d,p)
 ****
 1  2  13  14  15  16  17  18  19  20  21  22  24  25 0
 3-21G
 ****
 27  28  29  32  34  39  40  41  42  43  44  45  46  47  48  49 0
 3-21G
 ****


