%nproc=1
%NoSave
%Mem=1900MB
#P OB98/GEN NMR

erre ene a

0 1
  C      -80.761    -534.443     104.238
  O      -82.129    -534.042     104.111
  P      -82.940    -534.623     102.843
  C      -85.087    -535.100     104.237
  O      -84.501    -534.413     103.143
  C      -86.111    -534.215     104.947
  O      -85.479    -533.098     105.590
  C      -87.151    -533.603     104.023
  O      -88.180    -534.527     103.698
  C      -87.698    -532.476     104.892
  O      -88.695    -532.997     105.795
  C      -86.449    -532.022     105.662
  N      -84.430    -527.516     106.797
  C      -84.951    -528.485     107.627
  N      -84.899    -528.230     108.956
  N      -85.475    -529.604     107.200
  C      -85.425    -529.741     105.854
  C      -84.941    -528.851     104.923
  C      -84.394    -527.596     105.407
  O      -83.950    -526.693     104.709
  N      -85.062    -529.339     103.644
  C      -85.590    -530.536     103.806
  N      -85.842    -530.816     105.128
  O      -82.748    -536.204     102.996
  O      -82.449    -534.121     101.529
  H      -88.988    -532.253     106.354
  H      -82.810    -536.636     102.120
  H      -84.046    -526.664     107.180
  H      -85.806    -531.236     103.004
  H      -86.663    -531.855     106.726
  H      -88.183    -531.687     104.307
  H      -84.446    -527.422     109.357
  H      -86.683    -533.182     103.120
  H      -85.240    -528.945     109.584
  H      -86.610    -534.827     105.717
  H      -84.307    -535.393     104.948
  H      -85.548    -536.021     103.867
  P      -88.650    -534.597     102.162
  C      -88.474    -537.130     101.624
  O      -89.313    -536.052     101.976
  O      -87.269    -534.693     101.361
  O      -89.476    -533.435     101.716
  H      -87.362    -534.298     100.472
  H      -87.541    -537.108     102.193
  H      -88.248    -537.088     100.552
  H      -88.997    -538.060     101.840
  H      -80.337    -533.994     105.112
  H      -80.215    -534.126     103.374
  H      -80.708    -535.508     104.323

 3  4  5  6  7  8  9  10  11  12  23  26  30  31  33  0
 6-311+G(2d,p)
 ****
 35  36  37  38 0
 6-311+G(2d,p)
 ****
 1  2  13  14  15  16  17  18  19  20  21  22  24  25  27  28  29 0
 3-21G
 ****
 32  34  39  40  41  42  43  44  45  46  47  48  49 0
 3-21G
 ****


