%nproc=1
%NoSave
%Mem=1900MB
#P OB98/GEN NMR

erre ene a

0 1
  C        2.220     735.405    -536.385
  O        3.037     734.919    -537.427
  H        1.358     734.734    -536.281
  H        1.849     736.405    -536.627
  H        2.766     735.424    -535.435
  P        4.452     735.629    -537.686
  C        5.796     734.288    -535.937
  O        5.585     734.560    -537.318
  C        6.518     732.943    -535.781
  O        5.598     731.855    -536.024
  C        7.668     732.746    -536.752
  O        8.807     733.481    -536.361
  C        7.834     731.227    -536.694
  O        8.595     730.846    -535.539
  C        6.373     730.758    -536.575
  N        5.810     730.302    -537.844
  C        5.196     729.055    -537.845
  O        5.148     728.337    -536.848
  N        4.679     728.646    -539.043
  C        4.798     729.301    -540.244
  O        4.395     728.838    -541.310
  C        5.482     730.600    -540.183
  C        5.946     731.039    -539.007
  O        4.625     736.975    -537.067
  O        4.541     735.713    -539.287
  H        9.343     731.468    -535.476
  H        4.370     736.634    -539.573
  H        4.244     727.739    -539.065
  H        5.580     731.153    -541.114
  H        6.454     731.997    -538.953
  H        6.292     729.939    -535.853
  H        8.356     730.836    -537.569
  H        7.362     733.025    -537.771
  H        6.873     732.864    -534.740
  H        4.828     734.242    -535.441
  H        6.393     735.094    -535.506
  P        9.960     733.795    -537.426
  C        9.014     736.096    -538.113
  O       10.118     735.395    -537.520
  O        9.831     733.094    -538.745
  O       11.306     733.352    -536.678
  H       11.746     732.649    -537.189
  H        9.223     737.145    -538.125
  H        8.128     735.915    -537.541
  H        8.868     735.750    -539.115

 6  7  8  9  10  11  12  13  14  15  16  26  31  32  33  34  35 0
 6-311+G(2d,p)
 ****
 36  37 0
 6-311+G(2d,p)
 ****
 1  2  3  4  5  17  18  19  20  21  22  23  24  25 0
 3-21G
 ****
 27  28  29  30  38  39  40  41  42  43  44  45 0
 3-21G
 ****


