%nproc=1
%NoSave
%Mem=1900MB
#P OB98/GEN NMR

erre ene a

0 1
  C     -103.148     262.628     171.754
  O     -103.737     262.952     170.509
  H     -103.344     263.442     172.457
  H     -102.065     262.513     171.640
  H     -103.582     261.705     172.148
  P     -103.517     261.909     169.309
  C     -100.948     262.294     169.229
  O     -102.187     262.373     168.539
  C      -99.970     263.309     168.642
  O      -98.720     263.262     169.367
  C      -99.609     263.053     167.187
  O     -100.620     263.487     166.295
  C      -98.324     263.863     167.064
  O      -98.599     265.250     166.798
  C      -97.681     263.680     168.459
  N      -96.565     262.742     168.429
  C      -95.315     263.291     168.142
  O      -95.145     264.492     167.922
  N      -94.273     262.408     168.079
  C      -94.364     261.054     168.231
  O      -93.397     260.307     168.085
  C      -95.700     260.526     168.544
  C      -96.729     261.380     168.617
  O     -104.698     262.274     168.291
  O     -103.538     260.470     169.710
  H     -105.412     261.616     168.362
  H      -99.167     265.559     167.530
  H      -93.364     262.789     167.860
  H      -95.806     259.457     168.679
  H      -97.727     261.012     168.829
  H      -97.300     264.643     168.832
  H      -97.698     263.504     166.243
  H      -99.369     261.991     167.032
  H     -100.400     264.314     168.762
  H     -100.526     261.285     169.113
  H     -101.117     262.485     170.295
  P     -101.220     262.429     165.249
  C     -100.503     264.018     163.278
  O     -101.518     263.239     163.892
  O     -102.670     262.171     165.870
  O     -100.380     261.207     165.076
  H     -103.060     262.969     166.274
  H     -100.892     264.477     162.393
  H      -99.677     263.388     163.020
  H     -100.175     264.776     163.958

 6  7  8  9  10  11  12  13  14  15  16  27  31  32  33  34  35 0
 6-311+G(2d,p)
 ****
 36  37 0
 6-311+G(2d,p)
 ****
 1  2  3  4  5  17  18  19  20  21  22  23  24  25 0
 3-21G
 ****
 26  28  29  30  38  39  40  41  42  43  44  45 0
 3-21G
 ****


