%nproc=1
%NoSave
%Mem=1900MB
#P OB98/GEN NMR

erre ene a

0 1
  C      112.470     383.513     231.844
  O      113.214     383.966     232.954
  H      113.020     382.704     231.357
  H      112.338     384.325     231.125
  H      111.493     383.134     232.162
  P      112.523     385.050     233.917
  C      111.007     383.453     235.295
  O      112.158     384.287     235.281
  C      110.871     382.750     236.650
  O      111.835     381.667     236.708
  C      111.124     383.672     237.844
  O      110.210     383.318     238.892
  C      112.539     383.327     238.275
  O      112.784     383.617     239.651
  C      112.622     381.842     237.905
  N      114.008     381.416     237.711
  C      114.659     380.878     238.825
  O      114.075     380.791     239.907
  N      115.978     380.509     238.709
  C      116.612     380.734     237.596
  N      117.921     380.372     237.553
  C      115.978     381.361     236.418
  C      114.687     381.664     236.540
  O      111.095     385.290     233.237
  O      113.287     386.319     234.100
  H      112.171     383.078     240.192
  H      110.785     386.206     233.376
  H      116.555     381.552     235.524
  H      114.142     382.134     235.731
  H      112.172     381.222     238.692
  H      113.255     383.908     237.677
  H      111.009     384.732     237.605
  H      109.874     382.296     236.703
  H      118.324     379.962     238.390
  H      111.108     382.694     234.508
  H      118.522     380.542     236.758
  H      110.116     384.055     235.088
  P      109.837     384.472     239.940
  C      107.404     385.137     239.308
  O      108.253     384.423     240.199
  O      110.044     385.821     239.099
  O      110.684     384.459     241.173
  H      110.840     386.289     239.409
  H      106.385     385.010     239.608
  H      107.533     384.761     238.314
  H      107.656     386.177     239.332

 6  7  8  9  10  11  12  13  14  15  16  26  30  31  32  33  35 0
 6-311+G(2d,p)
 ****
 37  38 0
 6-311+G(2d,p)
 ****
 1  2  3  4  5  17  18  19  20  21  22  23  24  25 0
 3-21G
 ****
 27  28  29  34  36  39  40  41  42  43  44  45  46 0
 3-21G
 ****


