%nproc=1
%NoSave
%Mem=1900MB
#P OB98/GEN NMR

erre ene a

0 1
  C     -116.093      -8.633     -59.924
  O     -115.698      -7.596     -59.045
  P     -114.137      -7.244     -58.962
  C     -113.521      -8.427     -56.722
  O     -113.425      -8.419     -58.141
  C     -112.128      -8.598     -56.113
  O     -111.548      -9.855     -56.525
  C     -111.136      -7.528     -56.550
  O     -111.329      -6.319     -55.836
  C     -109.804      -8.203     -56.254
  O     -109.445      -8.050     -54.871
  C     -110.117      -9.678     -56.576
  N     -109.563     -10.102     -57.859
  C     -108.185      -9.961     -58.003
  O     -107.465      -9.488     -57.122
  N     -107.668     -10.345     -59.209
  C     -108.380     -10.793     -60.283
  O     -107.865     -11.069     -61.360
  C     -109.837     -10.893     -60.083
  C     -110.352     -10.543     -58.900
  O     -114.079      -5.992     -57.964
  O     -113.501      -6.935     -60.276
  H     -110.142      -8.499     -54.352
  H     -113.373      -5.378     -58.244
  H     -106.669     -10.275     -59.324
  H     -110.434     -11.246     -60.914
  H     -111.422     -10.597     -58.738
  H     -109.706     -10.329     -55.794
  H     -108.986      -7.781     -56.845
  H     -111.219      -7.360     -57.632
  H     -112.226      -8.608     -55.020
  H     -114.166      -9.252     -56.407
  H     -113.973      -7.488     -56.388
  P     -111.110      -4.950     -56.648
  C     -108.513      -4.674     -56.526
  O     -109.640      -5.072     -57.277
  O     -110.964      -3.908     -55.441
  O     -112.217      -4.655     -57.601
  H     -110.547      -4.307     -54.660
  H     -108.640      -4.897     -55.464
  H     -108.353      -3.601     -56.656
  H     -107.636      -5.210     -56.898
  H     -117.155      -8.757     -59.876
  H     -115.614      -9.546     -59.637
  H     -115.809      -8.381     -60.924

 3  4  5  6  7  8  9  10  11  12  13  23  28  29  30  31  32 0
 6-311+G(2d,p)
 ****
 33  34 0
 6-311+G(2d,p)
 ****
 1  2  14  15  16  17  18  19  20  21  22  24  25  26 0
 3-21G
 ****
 27  35  36  37  38  39  40  41  42  43  44  45 0
 3-21G
 ****


