%nproc=1
%NoSave
%Mem=1900MB
#P OB98/GEN NMR

erre ene a

0 1
  C      532.582     460.465      -4.104
  O      531.169     460.398      -4.031
  H      532.857     461.241      -4.821
  H      532.989     459.508      -4.447
  H      532.996     460.718      -3.123
  P      530.551     459.230      -3.110
  C      529.323     461.155      -1.846
  O      529.219     459.900      -2.502
  C      528.510     462.205      -2.595
  O      529.106     462.482      -3.889
  C      527.068     461.791      -2.897
  O      526.204     461.899      -1.782
  C      526.727     462.811      -3.974
  O      526.507     464.095      -3.367
  C      528.022     462.799      -4.811
  N      527.986     461.824      -5.913
  C      528.442     462.274      -7.157
  O      528.846     463.421      -7.307
  N      528.390     461.406      -8.231
  C      527.956     460.191      -8.066
  N      527.931     459.384      -9.168
  C      527.476     459.678      -6.767
  C      527.518     460.531      -5.747
  O      531.533     459.196      -1.851
  O      530.348     457.909      -3.778
  H      525.651     464.044      -2.899
  H      531.157     458.608      -1.145
  H      527.107     458.664      -6.679
  H      527.190     460.227      -4.763
  H      528.232     463.794      -5.234
  H      525.822     462.562      -4.532
  H      527.016     460.785      -3.333
  H      528.538     463.139      -2.014
  H      528.206     459.786     -10.051
  H      530.384     461.448      -1.817
  H      527.468     458.483      -9.169
  H      528.951     461.074      -0.817
  P      524.696     461.372      -1.957
  C      524.287     460.855       0.566
  O      523.939     461.643      -0.569
  O      524.871     459.782      -1.980
  O      523.994     461.877      -3.174
  H      524.214     459.368      -2.578
  H      523.696     461.158       1.405
  H      525.324     460.993       0.791
  H      524.102     459.823       0.354

 6  7  8  9  10  11  12  13  14  15  16  26  30  31  32  33  35 0
 6-311+G(2d,p)
 ****
 37  38 0
 6-311+G(2d,p)
 ****
 1  2  3  4  5  17  18  19  20  21  22  23  24  25 0
 3-21G
 ****
 27  28  29  34  36  39  40  41  42  43  44  45  46 0
 3-21G
 ****


