%nproc=1
%NoSave
%Mem=1900MB
#P OB98/GEN NMR

erre ene a

0 1
  C      266.703    -303.806      45.275
  O      266.092    -304.897      45.938
  H      267.770    -303.806      45.509
  H      266.264    -302.870      45.631
  H      266.580    -303.890      44.193
  P      264.604    -305.283      45.476
  C      265.089    -307.430      44.103
  O      264.748    -306.053      44.075
  C      264.531    -308.140      42.876
  O      265.065    -309.479      42.779
  C      263.013    -308.284      42.868
  O      262.376    -307.106      42.386
  C      262.842    -309.434      41.887
  O      263.004    -308.949      40.539
  C      264.017    -310.346      42.264
  N      261.353    -314.545      43.276
  C      261.361    -313.752      42.143
  N      260.537    -314.126      41.141
  N      262.105    -312.685      42.005
  C      262.863    -312.418      43.095
  C      262.939    -313.123      44.279
  C      262.124    -314.310      44.407
  O      262.088    -315.054      45.388
  N      263.818    -312.545      45.154
  C      264.255    -311.481      44.514
  N      263.708    -311.355      43.263
  O      263.982    -303.863      45.069
  O      263.775    -305.963      46.512
  H      262.471    -308.135      40.460
  H      263.396    -303.559      45.789
  H      260.756    -315.350      43.333
  H      264.976    -310.775      44.910
  H      264.424    -310.875      41.396
  H      261.852    -309.888      41.941
  H      259.921    -314.924      41.189
  H      262.629    -308.579      43.851
  H      260.528    -313.562      40.301
  H      264.869    -307.591      41.987
  H      264.670    -307.884      45.008
  H      266.181    -307.527      44.124
  P      260.807    -306.925      42.659
  C      260.861    -305.419      44.771
  O      260.626    -306.718      44.242
  O      260.237    -308.400      42.407
  O      260.121    -305.920      41.795
  H      259.686    -308.411      41.598
  H      260.704    -305.431      45.829
  H      260.187    -304.722      44.318
  H      261.869    -305.126      44.563

 6  7  8  9  10  11  12  13  14  15  26  29  33  34 0
 6-311+G(2d,p)
 ****
 36  38  39  40  41 0
 6-311+G(2d,p)
 ****
 1  2  3  4  5  16  17  18  19  20  21  22  23  24  25 0
 3-21G
 ****
 27  28  30  31  32  35  37  42  43  44  45  46  47 0
 3-21G
 ****
 48  49 0
 3-21G
 ****


