%nproc=1
%NoSave
%Mem=1900MB
#P OB98/GEN NMR

erre ene a

0 1
  C     -639.153      76.425      55.720
  O     -639.217      75.389      56.694
  H     -638.251      77.017      55.897
  H     -640.026      77.085      55.790
  H     -639.096      75.992      54.718
  P     -640.583      74.547      56.804
  C     -639.949      74.049      59.264
  O     -640.949      74.539      58.369
  C     -640.163      74.603      60.678
  O     -639.890      76.021      60.708
  C     -641.589      74.465      61.188
  O     -641.986      73.134      61.442
  C     -641.650      75.499      62.303
  O     -641.183      75.001      63.551
  C     -640.679      76.585      61.777
  N     -641.381      77.789      61.348
  C     -641.685      78.700      62.360
  O     -641.413      78.521      63.548
  N     -642.366      79.832      61.965
  C     -642.798      80.093      60.694
  O     -643.438      81.108      60.410
  C     -642.470      79.084      59.677
  C     -641.787      77.994      60.044
  O     -640.553      73.184      56.178
  O     -641.686      75.520      56.174
  H     -641.735      74.212      63.763
  H     -642.508      75.023      55.944
  H     -642.576      80.503      62.679
  H     -642.805      79.258      58.658
  H     -641.532      77.226      59.313
  H     -639.969      76.874      62.560
  H     -642.663      75.859      62.454
  H     -642.268      74.827      60.400
  H     -639.458      74.104      61.355
  H     -638.982      74.388      58.891
  H     -639.965      72.956      59.275
  P     -643.486      72.702      61.757
  C     -642.630      70.388      62.593
  O     -643.471      71.515      62.846
  O     -644.409      72.565      60.572
  O     -644.012      73.955      62.629
  H     -644.960      74.096      62.412
  H     -642.723      69.686      63.395
  H     -641.613      70.712      62.518
  H     -642.924      69.922      61.676

 6  7  8  9  10  11  12  13  14  15  16  26  31  32  33  34  35 0
 6-311+G(2d,p)
 ****
 36  37 0
 6-311+G(2d,p)
 ****
 1  2  3  4  5  17  18  19  20  21  22  23  24  25 0
 3-21G
 ****
 27  28  29  30  38  39  40  41  42  43  44  45 0
 3-21G
 ****


