%nproc=1
%NoSave
%Mem=1900MB
#P OB98/GEN NMR

erre ene a

0 1
  C     -898.640    -533.804    -354.601
  O     -898.220    -535.168    -354.580
  H     -898.100    -533.265    -353.830
  H     -899.720    -533.748    -354.394
  H     -898.420    -533.358    -355.567
  P     -898.920    -536.152    -355.631
  C     -896.570    -536.884    -356.388
  O     -897.830    -537.305    -355.884
  C     -895.750    -538.083    -356.875
  O     -895.260    -538.818    -355.730
  C     -896.570    -539.065    -357.722
  O     -895.760    -539.566    -358.793
  C     -896.910    -540.182    -356.759
  O     -897.140    -541.422    -357.428
  C     -895.680    -540.181    -355.850
  N     -896.630    -544.508    -353.312
  C     -896.220    -544.278    -354.581
  N     -895.970    -543.090    -355.167
  C     -896.140    -542.082    -354.301
  C     -896.550    -542.169    -352.968
  C     -896.780    -543.453    -352.482
  N     -897.220    -543.718    -351.207
  N     -896.620    -540.906    -352.419
  C     -896.280    -540.074    -353.383
  N     -895.980    -540.736    -354.543
  O     -899.470    -535.510    -356.865
  O     -900.000    -536.892    -354.706
  H     -897.430    -542.076    -356.756
  H     -899.610    -537.151    -353.852
  H     -896.090    -545.160    -355.219
  H     -896.220    -538.985    -353.300
  H     -894.840    -540.762    -356.262
  H     -897.810    -539.931    -356.197
  H     -897.490    -538.608    -358.140
  H     -894.880    -537.718    -357.427
  H     -896.000    -536.361    -355.599
  H     -897.380    -544.665    -350.934
  H     -897.340    -542.932    -350.555
  H     -896.750    -536.183    -357.207
  P     -896.160    -539.219    -360.291
  C     -893.910    -540.102    -361.220
  O     -895.320    -540.167    -361.285
  O     -896.160    -537.764    -360.655
  O     -897.640    -539.832    -360.399
  H     -898.190    -539.230    -360.954
  H     -893.488    -540.781    -361.932
  H     -893.586    -540.370    -360.236
  H     -893.588    -539.106    -361.443

 6  7  8  9  10  11  12  13  14  15  25  28  32  33  34  35 0
 6-311+G(2d,p)
 ****
 36  39  40 0
 6-311+G(2d,p)
 ****
 1  2  3  4  5  16  17  18  19  20  21  22  23  24 0
 3-21G
 ****
 26  27  29  30  31  37  38  41  42  43  44  45  46  47 0
 3-21G
 ****
 48 0
 3-21G
 ****


