%nproc=1
%NoSave
%Mem=1900MB
#P OB98/GEN NMR

erre ene a

0 1
  C     -184.824    -106.232    -671.757
  O     -185.784    -107.131    -672.271
  H     -185.110    -105.923    -670.751
  H     -183.854    -106.741    -671.714
  H     -184.730    -105.355    -672.406
  P     -187.238    -106.535    -672.589
  C     -189.555    -106.678    -671.407
  O     -188.210    -107.141    -671.460
  C     -190.310    -107.347    -670.260
  O     -190.390    -108.781    -670.533
  C     -189.638    -107.170    -668.894
  O     -190.651    -106.986    -667.900
  C     -188.929    -108.493    -668.669
  O     -188.724    -108.770    -667.286
  C     -189.869    -109.466    -669.371
  N     -188.830    -114.278    -668.001
  C     -189.615    -113.326    -667.447
  N     -189.849    -112.067    -667.875
  C     -189.197    -111.853    -669.030
  C     -188.362    -112.710    -669.718
  C     -188.167    -113.981    -669.148
  N     -187.340    -114.941    -669.689
  N     -187.854    -112.096    -670.857
  C     -188.376    -110.888    -670.850
  N     -189.194    -110.690    -669.773
  O     -187.656    -107.334    -673.913
  O     -187.308    -105.053    -672.779
  H     -189.598    -108.847    -666.850
  H     -187.226    -106.927    -674.688
  H     -190.123    -113.617    -666.536
  H     -188.181    -110.129    -671.596
  H     -190.725    -109.762    -668.739
  H     -187.946    -108.480    -669.166
  H     -188.947    -106.320    -668.872
  H     -191.339    -106.972    -670.249
  H     -190.057    -106.901    -672.361
  H     -187.226    -115.809    -669.180
  H     -186.800    -114.718    -670.504
  H     -189.547    -105.587    -671.256
  P     -190.737    -105.527    -667.212
  C     -189.530    -104.284    -665.310
  O     -189.824    -105.527    -665.893
  O     -192.241    -105.477    -666.650
  O     -190.479    -104.412    -668.177
  H     -192.679    -104.654    -666.934
  H     -188.918    -104.432    -664.445
  H     -190.440    -103.800    -665.025
  H     -189.007    -103.673    -666.016

 6  7  8  9  10  11  12  13  14  15  25  28  32  33  34  35 0
 6-311+G(2d,p)
 ****
 36  39  40 0
 6-311+G(2d,p)
 ****
 1  2  3  4  5  16  17  18  19  20  21  22  23  24 0
 3-21G
 ****
 26  27  29  30  31  37  38  41  42  43  44  45  46  47 0
 3-21G
 ****
 48 0
 3-21G
 ****


