%nproc=1
%NoSave
%Mem=1900MB
#P OB98/GEN NMR

erre ene a

0 1
  C      -89.387     132.142     -59.988
  O      -90.544     132.016     -60.791
  H      -88.718     131.294     -60.156
  H      -88.867     133.062     -60.265
  H      -89.663     132.197     -58.931
  P      -91.470     130.734     -60.517
  C      -92.995     131.867     -58.750
  O      -92.005     130.884     -59.011
  C      -93.890     131.417     -57.600
  O      -94.785     132.482     -57.220
  C      -94.784     130.223     -57.917
  O      -94.076     128.997     -57.828
  C      -95.824     130.347     -56.813
  O      -95.292     129.826     -55.582
  C      -95.999     131.870     -56.710
  N     -101.034     132.766     -56.606
  C     -100.178     132.325     -55.661
  N      -98.845     132.132     -55.757
  C      -98.408     132.463     -56.981
  C      -99.155     132.947     -58.042
  C     -100.534     133.093     -57.824
  N     -101.413     133.481     -58.823
  N      -98.354     133.160     -59.148
  C      -97.150     132.791     -58.765
  N      -97.130     132.370     -57.464
  O      -90.404     129.539     -60.427
  O      -92.511     130.470     -61.551
  H      -94.428     130.260     -55.444
  H      -90.357     129.088     -61.290
  H     -100.621     132.092     -54.698
  H      -96.270     132.808     -59.393
  H      -96.116     132.203     -55.672
  H      -96.744     129.797     -57.028
  H      -95.277     130.336     -58.889
  H      -93.247     131.203     -56.737
  H      -93.606     132.017     -59.646
  H     -102.351     133.109     -58.705
  H     -101.023     133.450     -59.757
  H      -92.497     132.807     -58.498
  P      -94.670     127.734     -58.619
  C      -93.192     128.304     -60.663
  O      -94.507     128.058     -60.184
  O      -96.245     127.863     -58.366
  O      -94.159     126.407     -58.177
  H      -96.583     127.040     -57.964
  H      -93.227     128.505     -61.713
  H      -92.581     127.444     -60.484
  H      -92.778     129.148     -60.152

 6  7  8  9  10  11  12  13  14  15  25  28  32  33  34  35 0
 6-311+G(2d,p)
 ****
 36  39  40 0
 6-311+G(2d,p)
 ****
 1  2  3  4  5  16  17  18  19  20  21  22  23  24 0
 3-21G
 ****
 26  27  29  30  31  37  38  41  42  43  44  45  46  47  48 0
 3-21G
 ****


