%nproc=1
%NoSave
%Mem=1900MB
#P OB98/GEN NMR

erre ene a

0 1
  C       70.303    -327.062    -259.792
  O       70.728    -326.740    -261.127
  P       70.669    -325.260    -261.741
  C       69.859    -324.214    -263.957
  O       69.665    -325.248    -262.999
  C       69.357    -324.626    -265.348
  O       70.147    -325.749    -265.856
  C       67.874    -325.056    -265.395
  O       67.341    -324.552    -266.615
  C       67.991    -326.576    -265.408
  O       66.817    -327.226    -265.866
  C       69.203    -326.731    -266.329
  N       69.806    -328.062    -266.346
  C       69.243    -329.020    -267.200
  O       68.246    -328.779    -267.866
  N       69.828    -330.267    -267.261
  C       70.870    -330.530    -266.533
  N       71.400    -331.783    -266.650
  C       71.482    -329.563    -265.614
  C       70.908    -328.361    -265.573
  O       72.010    -324.683    -262.046
  O       69.907    -324.375    -260.639
  H       70.302    -323.474    -260.633
  H       66.913    -328.183    -265.671
  H       72.356    -329.824    -265.037
  H       71.318    -327.579    -264.940
  H       68.929    -326.444    -267.353
  H       68.196    -326.924    -264.394
  H       67.287    -324.658    -264.561
  H       69.532    -323.791    -266.033
  H       70.958    -332.423    -267.305
  H       70.933    -323.993    -264.019
  H       72.215    -332.094    -266.141
  H       69.343    -323.309    -263.616
  P       66.194    -323.434    -266.585
  C       63.588    -323.446    -266.579
  O       64.781    -324.183    -266.440
  O       66.149    -322.950    -268.118
  O       66.435    -322.263    -265.687
  H       65.810    -322.043    -268.158
  H       62.891    -324.012    -267.202
  H       63.749    -322.466    -267.035
  H       63.132    -323.308    -265.585
  H       70.439    -328.109    -259.617
  H       69.269    -326.813    -259.677
  H       70.885    -326.504    -259.088

 3  4  5  6  7  8  9  10  11  12  13  24  27  28  29  30  32 0
 6-311+G(2d,p)
 ****
 34  35 0
 6-311+G(2d,p)
 ****
 1  2  14  15  16  17  18  19  20  21  22  23  25  26 0
 3-21G
 ****
 31  33  36  37  38  39  40  41  42  43  44  45  46 0
 3-21G
 ****


