%nproc=1
%NoSave
%Mem=1900MB
#P OB98/GEN NMR

erre ene a

0 1
  C        8.306    -398.636     -72.877
  O        9.071    -397.641     -72.224
  H        8.977    -399.255     -73.478
  H        7.572    -398.168     -73.538
  H        7.799    -399.269     -72.144
  P        8.307    -396.727     -71.155
  C        9.000    -398.328     -69.192
  O        7.959    -397.660     -69.893
  C        8.580    -398.573     -67.744
  O        8.527    -397.339     -67.000
  C        7.179    -399.145     -67.598
  O        7.092    -400.490     -68.012
  C        6.954    -398.939     -66.107
  O        7.617    -399.952     -65.339
  C        7.622    -397.560     -65.885
  N        6.649    -396.483     -65.759
  C        6.042    -396.354     -64.503
  O        6.346    -397.117     -63.586
  N        5.086    -395.386     -64.331
  C        4.781    -394.597     -65.314
  N        3.820    -393.665     -65.082
  C        5.414    -394.682     -66.645
  C        6.325    -395.641     -66.797
  O        6.878    -396.509     -71.837
  O        9.012    -395.466     -70.776
  H        7.280    -399.870     -64.426
  H        6.438    -397.336     -72.093
  H        5.135    -393.997     -67.431
  H        6.838    -395.771     -67.741
  H        8.237    -397.571     -64.976
  H        5.896    -398.982     -65.843
  H        6.457    -398.518     -68.136
  H        9.331    -399.224     -67.278
  H        3.391    -393.650     -64.163
  H        9.930    -397.753     -69.232
  H        3.477    -393.021     -65.780
  H        9.180    -399.283     -69.698
  P        5.672    -401.141     -68.370
  C        5.544    -399.968     -70.656
  O        4.948    -400.117     -69.373
  O        4.846    -401.548     -67.196
  O        6.059    -402.352     -69.343
  H        6.525    -402.087     -70.157
  H        4.979    -399.266     -71.232
  H        5.555    -400.914     -71.156
  H        6.547    -399.612     -70.544

 6  7  8  9  10  11  12  13  14  15  16  26  30  31  32  33  35 0
 6-311+G(2d,p)
 ****
 37  38 0
 6-311+G(2d,p)
 ****
 1  2  3  4  5  17  18  19  20  21  22  23  24  25 0
 3-21G
 ****
 27  28  29  34  36  39  40  41  42  43  44  45  46 0
 3-21G
 ****


