%nproc=1
%NoSave
%Mem=1900MB
#P OB98/GEN NMR

erre ene a

0 1
  C      681.130     203.463     411.619
  O      680.189     203.544     410.570
  P      680.472     204.493     409.301
  C      678.778     206.116     410.368
  O      680.057     205.975     409.750
  C      678.875     207.042     411.575
  O      680.058     206.737     412.364
  C      679.025     208.518     411.222
  O      677.934     209.142     410.582
  C      679.484     209.097     412.551
  O      678.377     209.315     413.429
  C      680.388     207.963     413.091
  N      681.807     208.289     412.975
  C      682.245     209.393     413.689
  O      681.498     210.078     414.394
  N      683.569     209.715     413.557
  C      684.468     209.090     412.746
  O      685.629     209.455     412.630
  C      683.952     207.934     411.998
  C      682.665     207.593     412.139
  O      679.853     204.029     408.022
  O      682.070     204.584     409.259
  H      678.741     209.671     414.268
  H      682.476     204.958     410.058
  H      683.895     210.531     414.050
  H      684.642     207.399     411.353
  H      682.259     206.738     411.590
  H      680.166     207.773     414.145
  H      679.984     210.062     412.415
  H      679.867     208.608     410.526
  H      678.001     206.867     412.214
  H      678.436     205.127     410.703
  H      678.055     206.488     409.639
  P      678.009     209.749     409.097
  C      677.426     212.098     410.027
  O      678.272     211.321     409.212
  O      676.959     209.288     408.135
  O      679.441     209.209     408.602
  H      679.413     209.062     407.636
  H      677.732     213.150     409.952
  H      677.516     211.785     411.072
  H      676.386     211.997     409.702
  H      680.772     202.788     412.368
  H      681.269     204.433     412.049
  H      682.063     203.107     411.235

 3  4  5  6  7  8  9  10  11  12  13  23  28  29  30  31  32 0
 6-311+G(2d,p)
 ****
 33  34 0
 6-311+G(2d,p)
 ****
 1  2  14  15  16  17  18  19  20  21  22  24  25  26  27 0
 3-21G
 ****
 35  36  37  38  39  40  41  42  43  44  45 0
 3-21G
 ****


