%nproc=1
%NoSave
%Mem=1900MB
#P OB98/GEN NMR

erre ene a

0 1
  C       69.921      67.922     114.357
  O       68.621      68.089     114.901
  P       67.321      67.903     113.980
  C       67.338      70.360     113.221
  O       67.427      69.000     112.812
  C       66.323      71.115     112.365
  O       66.548      70.783     110.974
  C       64.874      70.765     112.690
  O       64.072      71.941     112.548
  C       64.471      69.778     111.607
  O       63.053      69.799     111.386
  C       65.319      70.269     110.426
  N       64.805      68.570     105.604
  C       64.390      69.708     106.207
  N       64.537      70.084     107.497
  C       65.245      69.163     108.174
  C       65.739      67.958     107.697
  C       65.492      67.667     106.343
  N       65.930      66.513     105.730
  N       66.389      67.262     108.701
  C       66.305      68.044     109.754
  N       65.632      69.208     109.486
  O       66.024      67.901     114.714
  O       67.569      66.524     113.208
  H       62.866      69.164     110.665
  H       66.733      66.027     113.119
  H       63.862      70.409     105.567
  H       66.699      67.811     110.733
  H       64.823      71.080     109.881
  H       64.754      68.764     111.909
  H       64.754      70.349     113.697
  H       66.501      72.190     112.480
  H       68.323      70.822     113.101
  H       65.812      66.446     104.730
  H       66.585      65.927     106.231
  H       67.062      70.405     114.280
  P       62.857      72.097     113.594
  C       61.119      71.348     111.808
  O       61.725      71.100     113.055
  O       62.473      73.524     113.799
  O       63.470      71.375     114.890
  H       64.164      70.723     114.644
  H       60.350      70.589     111.632
  H       61.860      71.280     111.007
  H       60.649      72.337     111.797
  H       70.651      68.086     115.122
  H       70.069      68.626     113.565
  H       70.022      66.928     113.974

 3  4  5  6  7  8  9  10  11  12  22  25  29  30  31  32 0
 6-311+G(2d,p)
 ****
 33  36  37 0
 6-311+G(2d,p)
 ****
 1  2  13  14  15  16  17  18  19  20  21  23  24  26 0
 3-21G
 ****
 27  28  34  35  38  39  40  41  42  43  44  45  46  47  48 0
 3-21G
 ****


