%nproc=1
%NoSave
%Mem=1900MB
#P OB98/GEN NMR

erre ene a

0 1
  C      -87.603      -4.604     412.302
  O      -87.134      -3.820     413.377
  H      -87.970      -5.554     412.702
  H      -86.792      -4.819     411.602
  H      -88.423      -4.101     411.785
  P      -86.494      -2.379     413.075
  C      -87.359      -0.251     411.928
  O      -87.721      -1.467     412.571
  C      -88.104       0.937     412.532
  O      -89.537       0.700     412.455
  C      -87.760       1.198     414.008
  O      -87.510       2.592     414.204
  C      -89.027       0.799     414.746
  O      -89.161       1.442     416.012
  C      -90.095       1.149     413.705
  N      -91.377       0.523     413.999
  C      -92.377       1.374     414.480
  O      -92.159       2.573     414.629
  N      -93.589       0.830     414.836
  C      -93.765      -0.448     414.762
  N      -94.978      -0.924     415.158
  C      -92.725      -1.386     414.286
  C      -91.567      -0.836     413.922
  O      -85.308      -2.400     412.173
  O      -86.172      -1.763     414.520
  H      -88.322       1.337     416.507
  H      -85.478      -1.072     414.423
  H      -92.921      -2.448     414.253
  H      -90.742      -1.440     413.563
  H      -90.241       2.238     413.645
  H      -89.019      -0.287     414.919
  H      -86.896       0.630     414.353
  H      -87.907       1.823     411.915
  H      -95.659      -0.247     415.484
  H      -87.583      -0.344     410.856
  H      -95.222      -1.902     415.169
  H      -86.283      -0.100     412.056
  P      -86.248       3.203     413.421
  C      -86.102       5.102     411.658
  O      -86.794       3.950     412.105
  O      -85.506       1.905     412.850
  O      -85.344       4.017     414.288
  H      -84.660       1.771     413.318
  H      -86.578       5.486     410.780
  H      -85.089       4.844     411.430
  H      -86.116       5.847     412.426

 6  7  8  9  10  11  12  13  14  15  16  26  30  31  32  33  35 0
 6-311+G(2d,p)
 ****
 37  38 0
 6-311+G(2d,p)
 ****
 1  2  3  4  5  17  18  19  20  21  22  23  24  25 0
 3-21G
 ****
 27  28  29  34  36  39  40  41  42  43  44  45  46 0
 3-21G
 ****


