%nproc=1
%NoSave
%Mem=1900MB
#P OB98/GEN NMR

erre ene a

0 1
  C      626.227     495.721     191.726
  O      627.304     496.444     192.314
  P      628.809     496.000     191.969
  C      629.804     496.278     189.604
  O      629.343     496.946     190.776
  C      629.987     497.271     188.454
  O      628.728     497.856     188.051
  C      630.884     498.457     188.821
  O      632.237     498.056     188.855
  C      630.516     499.443     187.718
  O      631.245     499.161     186.510
  C      629.013     499.163     187.512
  N      628.161     500.187     188.094
  C      627.702     501.189     187.229
  O      628.053     501.189     186.042
  N      626.863     502.160     187.733
  C      626.525     502.142     188.991
  N      625.700     503.128     189.427
  C      627.005     501.114     189.943
  C      627.812     500.192     189.441
  O      629.024     494.540     191.777
  O      629.641     496.551     193.234
  H      631.061     499.889     185.895
  H      630.416     495.969     193.371
  H      626.687     501.138     190.987
  H      628.214     499.401     190.074
  H      628.779     499.116     186.441
  H      630.767     500.467     187.997
  H      630.583     498.857     189.788
  H      630.411     496.723     187.600
  H      625.400     503.823     188.756
  H      629.082     495.501     189.313
  H      625.342     503.162     190.366
  H      630.742     495.762     189.831
  P      633.065     498.354     190.191
  C      632.286     497.829     192.615
  O      632.558     497.324     191.306
  O      632.474     499.766     190.687
  O      634.557     498.427     190.019
  H      633.169     500.273     191.116
  H      631.662     497.093     193.146
  H      631.758     498.778     192.576
  H      633.222     497.931     193.161
  H      625.297     496.137     192.053
  H      626.282     494.695     192.023
  H      626.292     495.788     190.660

 3  4  5  6  7  8  9  10  11  12  13  23  27  28  29  30  32 0
 6-311+G(2d,p)
 ****
 34  35 0
 6-311+G(2d,p)
 ****
 1  2  14  15  16  17  18  19  20  21  22  24  25  26 0
 3-21G
 ****
 31  33  36  37  38  39  40  41  42  43  44  45  46 0
 3-21G
 ****


