%nproc=1
%NoSave
%Mem=1900MB
#P OB98/GEN NMR

erre ene a

0 1
  C     -130.604      77.985     -11.875
  O     -130.330      79.205     -12.541
  P     -128.880      79.867     -12.333
  C     -129.913      81.567     -10.650
  O     -128.907      80.598     -10.904
  C     -129.663      82.257      -9.306
  O     -129.642      81.246      -8.265
  C     -128.343      83.032      -9.214
  O     -128.572      84.146      -8.343
  C     -127.412      82.041      -8.540
  O     -126.296      82.669      -7.920
  C     -128.376      81.357      -7.577
  N     -127.511      78.234      -3.689
  C     -127.903      79.563      -3.690
  N     -128.154      80.113      -2.482
  N     -128.036      80.282      -4.772
  C     -127.766      79.591      -5.906
  C     -127.337      78.290      -6.034
  C     -127.228      77.496      -4.831
  O     -126.971      76.296      -4.791
  N     -127.079      77.972      -7.342
  C     -127.433      79.052      -8.008
  N     -127.899      80.042      -7.188
  O     -128.888      81.078     -13.378
  O     -127.714      78.947     -12.526
  H     -125.801      83.154      -8.613
  H     -128.485      80.810     -14.228
  H     -127.444      77.726      -2.825
  H     -127.381      79.170      -9.081
  H     -128.535      81.938      -6.659
  H     -127.026      81.330      -9.283
  H     -128.102      79.608      -1.609
  H     -127.968      83.374     -10.185
  H     -128.474      81.073      -2.455
  H     -130.513      82.921      -9.098
  H     -130.886      81.065     -10.611
  H     -129.933      82.298     -11.465
  P     -128.047      85.586      -8.815
  C     -126.434      85.807      -6.799
  O     -126.581      85.789      -8.205
  O     -128.947      86.592      -7.951
  O     -128.196      85.860     -10.277
  H     -129.103      87.412      -8.459
  H     -125.399      85.553      -6.552
  H     -127.100      85.088      -6.314
  H     -126.649      86.812      -6.425
  H     -131.599      77.668     -12.106
  H     -130.511      78.127     -10.818
  H     -129.908      77.239     -12.197

 3  4  5  6  7  8  9  10  11  12  23  26  30  31 0
 6-311+G(2d,p)
 ****
 33  35  36  37  38 0
 6-311+G(2d,p)
 ****
 1  2  13  14  15  16  17  18  19  20  21  22  24  25 0
 3-21G
 ****
 27  28  29  32  34  39  40  41  42  43  44  45  46  47  48  49 0
 3-21G
 ****


