%nproc=1
%NoSave
%Mem=1900MB
#P OB98/GEN NMR

erre ene a

0 1
  C     1054.759     351.176    1160.538
  O     1055.356     351.079    1161.825
  H     1054.080     350.332    1160.411
  H     1055.528     351.143    1159.767
  H     1054.191     352.108    1160.458
  P     1056.414     352.225    1162.205
  C     1058.630     351.441    1161.109
  O     1057.850     351.497    1162.290
  C     1060.076     351.091    1161.443
  O     1060.623     352.013    1162.407
  C     1060.269     349.685    1162.009
  O     1060.325     348.711    1160.978
  C     1061.594     349.843    1162.748
  O     1062.719     349.742    1161.836
  C     1061.483     351.267    1163.313
  N     1062.415     352.740    1168.061
  C     1063.168     352.900    1166.917
  N     1064.372     353.496    1167.059
  N     1062.778     352.504    1165.724
  C     1061.574     351.896    1165.732
  C     1060.719     351.697    1166.801
  C     1061.152     352.166    1168.112
  O     1060.503     352.118    1169.149
  N     1059.573     351.069    1166.406
  C     1059.733     350.851    1165.121
  N     1060.946     351.319    1164.667
  O     1056.075     352.553    1163.744
  O     1056.361     353.455    1161.363
  H     1062.600     348.955    1161.279
  H     1056.284     353.487    1163.923
  H     1062.760     353.089    1168.936
  H     1059.016     350.354    1164.483
  H     1062.444     351.783    1163.340
  H     1061.735     349.068    1163.506
  H     1064.857     353.505    1167.946
  H     1059.471     349.451    1162.740
  H     1064.943     353.588    1166.226
  H     1060.665     351.209    1160.516
  H     1058.603     352.413    1160.611
  H     1058.203     350.688    1160.428
  P     1059.386     347.414    1161.123
  C     1060.690     346.245    1163.061
  O     1060.332     346.239    1161.673
  O     1059.104     346.983    1159.611
  O     1058.125     347.647    1161.876
  H     1058.345     346.388    1159.569
  H     1061.319     345.405    1163.271
  H     1059.804     346.186    1163.658
  H     1061.215     347.149    1163.290

 6  7  8  9  10  11  12  13  14  15  26  29  33  34 0
 6-311+G(2d,p)
 ****
 36  38  39  40  41 0
 6-311+G(2d,p)
 ****
 1  2  3  4  5  16  17  18  19  20  21  22  23  24  25 0
 3-21G
 ****
 27  28  30  31  32  35  37  42  43  44  45  46  47 0
 3-21G
 ****
 48  49 0
 3-21G
 ****


