%nproc=1
%NoSave
%Mem=1900MB
#P OB98/GEN NMR

erre ene a

0 1
  C     -896.980      31.612    1675.071
  O     -897.700      32.822    1674.841
  P     -897.850      33.981    1675.933
  C     -896.860      36.068    1674.726
  O     -896.650      35.053    1675.702
  C     -895.940      35.886    1673.526
  O     -896.250      34.633    1672.855
  C     -896.070      36.937    1672.438
  O     -895.480      38.174    1672.813
  C     -895.370      36.245    1671.266
  O     -893.930      36.437    1671.325
  C     -895.720      34.765    1671.500
  N     -896.660      34.234    1670.520
  C     -896.120      33.851    1669.299
  O     -894.910      34.032    1669.029
  N     -896.940      33.277    1668.361
  C     -898.210      33.194    1668.604
  N     -899.000      32.596    1667.649
  C     -898.860      33.721    1669.842
  C     -898.020      34.207    1670.729
  O     -897.930      33.490    1677.338
  O     -899.170      34.795    1675.524
  H     -899.550      35.223    1676.319
  H     -893.580      36.160    1670.448
  H     -899.920      33.666    1669.973
  H     -898.390      34.619    1671.685
  H     -894.810      34.150    1671.481
  H     -895.700      36.648    1670.301
  H     -897.130      37.092    1672.189
  H     -894.900      35.830    1673.890
  H     -898.530      32.245    1666.821
  H     -896.660      37.036    1675.195
  H     -900.000      32.470    1667.753
  H     -897.920      36.059    1674.415
  P     -896.480      39.414    1673.044
  C     -897.120      39.763    1675.533
  O     -897.390      39.083    1674.337
  O     -897.530      39.298    1671.830
  O     -895.830      40.750    1673.080
  H     -897.740      40.183    1671.473
  H     -898.040      39.820    1676.117
  H     -896.760      40.789    1675.351
  H     -896.380      39.224    1676.110
  H     -897.023      30.999    1674.195
  H     -897.417      31.088    1675.895
  H     -895.959      31.841    1675.295

 3  4  5  6  7  8  9  10  11  12  13  24  27  28  29  30  32 0
 6-311+G(2d,p)
 ****
 34  35 0
 6-311+G(2d,p)
 ****
 1  2  14  15  16  17  18  19  20  21  22  23  25  26 0
 3-21G
 ****
 31  33  36  37  38  39  40  41  42  43  44  45  46 0
 3-21G
 ****


