%nproc=1
%NoSave
%Mem=1900MB
#P OB98/GEN NMR

erre ene a

0 1
  C      105.684      63.539      77.971
  O      106.851      63.863      77.233
  P      108.302      63.820      77.919
  C      109.450      65.214      79.749
  O      108.374      65.144      78.820
  C      109.657      66.657      80.203
  O      110.316      67.381      79.137
  C      108.386      67.452      80.503
  O      107.866      67.264      81.810
  C      108.908      68.878      80.370
  O      109.623      69.248      81.563
  C      109.874      68.761      79.188
  N      107.146      72.317      76.717
  C      107.642      72.269      77.975
  N      108.343      71.276      78.565
  C      108.555      70.272      77.700
  C      108.118      70.180      76.389
  C      107.379      71.269      75.896
  N      106.894      71.325      74.606
  N      108.517      68.984      75.823
  C      109.194      68.375      76.775
  N      109.253      69.116      77.924
  O      109.430      63.619      76.968
  O      108.190      62.652      79.005
  H      108.999      69.158      82.308
  H      109.083      62.372      79.287
  H      107.446      73.141      78.593
  H      109.653      67.402      76.679
  H      110.766      69.384      79.311
  H      108.108      69.613      80.238
  H      107.617      67.278      79.741
  H      110.327      66.653      81.073
  H      110.358      64.860      79.250
  H      106.490      72.196      74.301
  H      107.205      70.622      73.950
  H      109.245      64.558      80.599
  P      106.273      67.083      81.947
  C      104.269      68.655      81.340
  O      105.645      68.523      81.622
  O      105.826      66.461      83.223
  O      105.904      66.220      80.649
  H      106.022      66.676      79.800
  H      104.018      69.719      81.310
  H      103.665      68.177      82.116
  H      104.041      68.212      80.368
  H      104.826      63.628      77.338
  H      105.588      64.210      78.799
  H      105.758      62.535      78.333

 3  4  5  6  7  8  9  10  11  12  22  25  29  30  31  32 0
 6-311+G(2d,p)
 ****
 33  36  37 0
 6-311+G(2d,p)
 ****
 1  2  13  14  15  16  17  18  19  20  21  23  24  26 0
 3-21G
 ****
 27  28  34  35  38  39  40  41  42  43  44  45  46  47  48 0
 3-21G
 ****


