%nproc=1
%NoSave
%Mem=1900MB
#P OB98/GEN NMR

erre ene a

0 1
  C      161.766     348.098     107.781
  O      163.168     348.001     107.915
  H      161.522     349.065     107.331
  H      161.287     348.038     108.760
  H      161.391     347.300     107.131
  P      163.741     346.674     108.613
  C      164.088     347.640     111.001
  O      164.697     347.160     109.808
  C      165.108     348.435     111.816
  O      166.137     347.551     112.308
  C      165.849     349.502     111.011
  O      165.066     350.666     110.821
  C      167.058     349.741     111.897
  O      166.765     350.672     112.949
  C      167.342     348.330     112.461
  N      168.492     347.694     111.819
  C      169.608     347.511     112.629
  O      169.651     347.855     113.811
  N      170.703     346.954     112.023
  C      170.791     346.607     110.704
  O      171.829     346.179     110.199
  C      169.575     346.815     109.899
  C      168.504     347.351     110.477
  O      164.760     346.100     107.520
  O      162.707     345.672     109.005
  H      164.353     345.347     107.049
  H      166.726     351.553     112.534
  H      171.526     346.824     112.591
  H      169.617     346.540     108.852
  H      167.598     347.530     109.907
  H      167.548     348.387     113.540
  H      167.894     350.159     111.333
  H      166.183     349.085     110.050
  H      164.593     348.889     112.672
  H      163.737     346.793     111.599
  H      163.227     348.269     110.736
  P      164.785     351.164     109.323
  C      166.033     353.476     109.496
  O      164.806     352.774     109.362
  O      163.231     350.804     109.164
  O      165.685     350.551     108.301
  H      162.723     350.923     109.984
  H      165.843     354.529     109.502
  H      166.674     353.234     108.674
  H      166.507     353.194     110.413

 6  7  8  9  10  11  12  13  14  15  16  27  31  32  33  34  35 0
 6-311+G(2d,p)
 ****
 36  37 0
 6-311+G(2d,p)
 ****
 1  2  3  4  5  17  18  19  20  21  22  23  24  25 0
 3-21G
 ****
 26  28  29  30  38  39  40  41  42  43  44  45 0
 3-21G
 ****


