%nproc=1
%NoSave
%Mem=1900MB
#P OB98/GEN NMR

erre ene a

0 1
  C     -216.031      95.090     147.405
  O     -216.026      96.397     146.819
  P     -217.217      96.759     145.806
  C     -217.816      98.976     144.533
  O     -216.818      98.170     145.155
  C     -217.472     100.450     144.710
  O     -217.679     100.868     146.080
  C     -216.021     100.799     144.399
  O     -215.781     100.798     142.995
  C     -215.898     102.160     145.072
  O     -216.454     103.188     144.230
  C     -216.782     101.974     146.328
  N     -216.006     101.772     147.543
  C     -215.442     102.916     148.102
  O     -215.557     104.036     147.603
  N     -214.720     102.725     149.255
  C     -214.483     101.527     149.866
  O     -213.837     101.421     150.899
  C     -215.064     100.351     149.201
  C     -215.786     100.519     148.087
  O     -218.397      97.111     146.830
  O     -217.519      95.658     144.844
  H     -218.081      97.550     147.639
  H     -216.218     102.946     143.313
  H     -214.316     103.546     149.681
  H     -214.874      99.377     149.644
  H     -216.215      99.659     147.583
  H     -217.418     102.859     146.478
  H     -214.861     102.432     145.278
  H     -215.351     100.081     144.887
  H     -218.146     101.039     144.065
  H     -218.788      98.774     144.990
  H     -217.882      98.705     143.478
  P     -214.685      99.756     142.449
  C     -214.554      98.937     139.969
  O     -214.554     100.017     140.876
  O     -215.495      98.377     142.554
  O     -213.404      99.777     143.217
  H     -216.409      98.448     142.226
  H     -214.807      99.309     138.974
  H     -215.286      98.177     140.254
  H     -213.556      98.488     139.934
  H     -215.187      94.987     148.054
  H     -215.979      94.352     146.632
  H     -216.931      94.955     147.967

 3  4  5  6  7  8  9  10  11  12  13  24  28  29  30  31  32 0
 6-311+G(2d,p)
 ****
 33  34 0
 6-311+G(2d,p)
 ****
 1  2  14  15  16  17  18  19  20  21  22  23  25  26  27 0
 3-21G
 ****
 35  36  37  38  39  40  41  42  43  44  45 0
 3-21G
 ****


