%nproc=1
%NoSave
%Mem=1900MB
#P OB98/GEN NMR

erre ene a

0 1
  C     -144.163    -248.020     181.037
  O     -143.179    -248.277     182.027
  P     -142.628    -249.764     182.265
  C     -144.568    -250.234     183.885
  O     -143.155    -250.222     183.710
  C     -144.957    -251.116     185.073
  O     -146.400    -251.202     185.137
  C     -144.414    -252.535     184.977
  O     -144.072    -252.991     186.290
  C     -145.595    -253.356     184.482
  O     -145.480    -254.731     184.886
  C     -146.772    -252.595     185.101
  N     -151.870    -251.987     185.080
  C     -150.937    -251.707     186.016
  N     -149.603    -251.916     185.965
  C     -149.253    -252.427     184.774
  C     -150.093    -252.764     183.719
  C     -151.464    -252.527     183.907
  N     -152.414    -252.802     182.947
  N     -149.368    -253.295     182.668
  C     -148.117    -253.262     183.073
  N     -147.994    -252.735     184.334
  O     -141.161    -249.934     182.059
  O     -143.479    -250.675     181.264
  H     -146.340    -255.162     184.688
  H     -142.915    -251.374     180.879
  H     -151.313    -251.253     186.929
  H     -147.272    -253.612     182.503
  H     -146.968    -252.920     186.132
  H     -145.625    -253.327     183.387
  H     -143.546    -252.619     184.316
  H     -144.616    -250.628     185.995
  H     -145.024    -250.635     182.976
  H     -153.354    -252.485     183.121
  H     -152.094    -253.039     182.015
  H     -144.926    -249.208     184.033
  P     -142.503    -252.982     186.651
  C     -141.684    -254.329     184.577
  O     -141.919    -254.308     185.968
  O     -142.266    -252.807     188.118
  O     -141.981    -251.771     185.740
  H     -142.567    -251.628     184.963
  H     -141.327    -255.325     184.299
  H     -140.918    -253.599     184.312
  H     -142.610    -254.118     184.030
  H     -144.399    -246.976     181.031
  H     -145.046    -248.584     181.256
  H     -143.786    -248.306     180.077

 3  4  5  6  7  8  9  10  11  12  22  25  29  30  31  32 0
 6-311+G(2d,p)
 ****
 33  36  37 0
 6-311+G(2d,p)
 ****
 1  2  13  14  15  16  17  18  19  20  21  23  24  26 0
 3-21G
 ****
 27  28  34  35  38  39  40  41  42  43  44  45  46  47  48 0
 3-21G
 ****


