%nproc=1
%NoSave
%Mem=1900MB
#P OB98/GEN NMR

erre ene a

0 1
  C     -623.494      20.986     -91.824
  O     -623.128      22.111     -92.609
  P     -622.741      23.458     -91.833
  C     -624.889      24.754     -92.550
  O     -624.116      24.208     -91.484
  C     -626.138      25.431     -92.000
  O     -626.923      24.481     -91.248
  C     -625.865      26.581     -91.037
  O     -625.456      27.746     -91.743
  C     -627.228      26.708     -90.360
  O     -628.154      27.411     -91.203
  C     -627.647      25.225     -90.225
  N     -629.596      23.740     -85.723
  C     -630.167      24.302     -86.815
  N     -629.586      24.689     -87.969
  C     -628.262      24.443     -87.930
  C     -627.526      23.903     -86.883
  C     -628.255      23.535     -85.739
  N     -627.669      22.971     -84.629
  N     -626.193      23.822     -87.194
  C     -626.111      24.296     -88.425
  N     -627.335      24.676     -88.924
  O     -622.098      24.372     -92.978
  O     -621.803      23.272     -90.676
  H     -629.046      27.279     -90.824
  H     -621.384      24.937     -92.619
  H     -631.248      24.454     -86.762
  H     -625.197      24.386     -89.005
  H     -628.717      25.081     -90.403
  H     -627.185      27.244     -89.402
  H     -625.098      26.305     -90.313
  H     -626.742      25.782     -92.850
  H     -625.190      23.950     -93.228
  H     -628.230      22.881     -83.795
  H     -626.655      22.948     -84.588
  H     -624.270      25.457     -93.116
  P     -624.745      28.911     -90.892
  C     -626.857      30.334     -91.296
  O     -625.982      29.774     -90.337
  O     -624.156      29.842     -92.050
  O     -623.760      28.432     -89.885
  H     -624.825      30.037     -92.729
  H     -627.667      30.840     -90.786
  H     -627.275      29.549     -91.925
  H     -626.305      31.060     -91.915
  H     -623.726      20.163     -92.467
  H     -624.352      21.228     -91.232
  H     -622.681      20.719     -91.182

 3  4  5  6  7  8  9  10  11  12  22  25  29  30  31  32 0
 6-311+G(2d,p)
 ****
 33  36  37 0
 6-311+G(2d,p)
 ****
 1  2  13  14  15  16  17  18  19  20  21  23  24  26 0
 3-21G
 ****
 27  28  34  35  38  39  40  41  42  43  44  45  46  47  48 0
 3-21G
 ****


