%nproc=1
%NoSave
%Mem=1900MB
#P OB98/GEN NMR

erre ene a

0 1
  C     -174.253     -18.357     117.877
  O     -172.973     -18.494     118.463
  H     -174.486     -17.293     117.781
  H     -175.010     -18.827     118.514
  H     -174.267     -18.814     116.883
  P     -172.423     -19.989     118.653
  C     -173.317     -22.142     119.810
  O     -173.499     -20.750     119.569
  C     -174.601     -22.740     120.381
  O     -175.665     -22.612     119.409
  C     -174.510     -24.228     120.698
  O     -173.851     -24.467     121.931
  C     -175.982     -24.617     120.713
  O     -176.593     -24.326     121.976
  C     -176.577     -23.713     119.624
  N     -180.158     -25.576     116.511
  C     -180.239     -24.849     117.647
  N     -179.231     -24.374     118.410
  C     -178.041     -24.712     117.883
  C     -177.803     -25.454     116.739
  C     -178.933     -25.894     116.031
  N     -178.855     -26.665     114.892
  N     -176.447     -25.633     116.550
  C     -175.876     -25.001     117.557
  N     -176.799     -24.426     118.383
  O     -171.168     -19.784     119.629
  O     -172.044     -20.694     117.394
  H     -176.178     -23.505     122.304
  H     -170.352     -19.714     119.100
  H     -181.245     -24.622     117.990
  H     -174.808     -24.941     117.734
  H     -177.539     -23.279     119.926
  H     -176.114     -25.686     120.529
  H     -174.012     -24.762     119.881
  H     -174.886     -22.167     121.272
  H     -172.504     -22.281     120.528
  H     -173.049     -22.632     118.867
  H     -179.707     -26.966     114.450
  H     -177.948     -26.997     114.590
  P     -173.319     -25.946     122.236
  C     -174.458     -28.110     123.122
  O     -174.596     -26.906     122.385
  O     -172.754     -25.830     123.731
  O     -172.283     -26.444     121.284
  H     -171.782     -25.739     123.720
  H     -175.391     -28.633     123.128
  H     -174.170     -27.882     124.127
  H     -173.708     -28.723     122.667

 6  7  8  9  10  11  12  13  14  15  25  28  32  33  34  35 0
 6-311+G(2d,p)
 ****
 36  37  40 0
 6-311+G(2d,p)
 ****
 1  2  3  4  5  16  17  18  19  20  21  22  23  24 0
 3-21G
 ****
 26  27  29  30  31  38  39 41  42  43  44  45  46  47  48 0
 3-21G
 ****


