%nproc=1
%NoSave
%Mem=1900MB
#P OB98/GEN NMR

erre ene a

0 1
  C     -139.304     -21.297      72.703
  O     -140.461     -22.001      72.244
  P     -141.935     -21.457      72.574
  C     -143.093     -20.219      70.654
  O     -142.817     -21.493      71.229
  C     -143.452     -20.289      69.163
  O     -142.318     -20.734      68.376
  C     -144.626     -21.218      68.825
  O     -145.292     -20.613      67.712
  C     -143.919     -22.493      68.408
  O     -144.754     -23.360      67.650
  C     -142.705     -21.923      67.662
  N     -141.609     -22.883      67.569
  C     -141.809     -23.996      66.752
  O     -142.894     -24.169      66.191
  N     -140.796     -24.918      66.624
  C     -139.717     -24.783      67.333
  N     -138.758     -25.738      67.184
  C     -139.497     -23.668      68.275
  C     -140.470     -22.758      68.332
  O     -141.971     -20.154      73.305
  O     -142.583     -22.621      73.468
  H     -144.910     -22.947      66.775
  H     -143.228     -22.230      74.089
  H     -138.593     -23.614      68.863
  H     -140.402     -21.901      68.990
  H     -142.985     -21.619      66.643
  H     -143.590     -23.043      69.300
  H     -145.314     -21.366      69.658
  H     -143.681     -19.268      68.834
  H     -138.959     -26.502      66.548
  H     -142.209     -19.583      70.780
  H     -137.937     -25.793      67.766
  H     -143.909     -19.747      71.211
  P     -146.681     -19.831      67.875
  C     -146.050     -17.357      67.691
  O     -146.560     -18.488      67.008
  O     -147.123     -19.623      69.289
  O     -147.745     -20.706      67.053
  H     -148.647     -20.456      67.333
  H     -145.814     -16.578      66.961
  H     -145.139     -17.611      68.243
  H     -146.800     -16.976      68.390
  H     -138.423     -21.813      72.384
  H     -139.320     -21.244      73.772
  H     -139.304     -20.307      72.296

 3  4  5  6  7  8  9  10  11  12  13  23  27  28  29  30  32 0
 6-311+G(2d,p)
 ****
 34  35 0
 6-311+G(2d,p)
 ****
 1  2  14  15  16  17  18  19  20  21  22  24  25  26 0
 3-21G
 ****
 31  33  36  37  38  39  40  41  42  43  44  45  46 0
 3-21G
 ****


