%nproc=1
%NoSave
%Mem=1900MB
#P OB98/GEN NMR

erre ene a

0 1
  C     -817.081     485.736     253.720
  O     -817.772     484.486     253.632
  P     -817.917     483.826     252.178
  C     -820.502     484.155     252.468
  O     -819.427     483.302     252.092
  C     -821.838     483.428     252.302
  O     -822.125     483.209     250.893
  C     -821.876     482.047     252.939
  O     -821.981     482.136     254.352
  C     -823.091     481.441     252.239
  O     -824.301     481.895     252.858
  C     -822.963     482.027     250.820
  N     -822.448     481.074     249.845
  C     -823.325     480.057     249.476
  O     -824.453     479.937     249.941
  N     -822.848     479.159     248.557
  C     -821.591     479.167     248.009
  O     -821.224     478.342     247.181
  C     -820.694     480.236     248.475
  C     -821.152     481.128     249.364
  O     -817.041     482.500     252.351
  O     -817.479     484.735     251.081
  H     -817.104     482.118     253.242
  H     -824.256     482.874     252.872
  H     -823.468     478.427     248.264
  H     -819.688     480.256     248.084
  H     -820.505     481.917     249.725
  H     -823.942     482.373     250.469
  H     -823.090     480.343     252.286
  H     -820.973     481.485     252.673
  H     -822.628     484.063     252.719
  H     -820.503     485.051     251.840
  H     -820.354     484.472     253.504
  P     -820.629     481.940     255.198
  C     -820.526     479.450     254.410
  O     -820.493     480.369     255.477
  O     -821.059     482.559     256.613
  O     -819.433     482.590     254.578
  H     -821.943     482.270     256.898
  H     -820.081     478.509     254.745
  H     -819.965     479.817     253.546
  H     -821.562     479.263     254.118
  H     -817.058     486.060     254.740
  H     -817.588     486.467     253.125
  H     -816.080     485.616     253.361

 3  4  5  6  7  8  9  10  11  12  13  24  28  29  30  31  32 0
 6-311+G(2d,p)
 ****
 33  34 0
 6-311+G(2d,p)
 ****
 1  2  14  15  16  17  18  19  20  21  22  23  25  26  27 0
 3-21G
 ****
 35  36  37  38  39  40  41  42  43  44  45 0
 3-21G
 ****


