%nproc=1
%NoSave
%Mem=1900MB
#P OB98/GEN NMR

erre ene a

0 1
  C     -149.747       4.881      73.300
  O     -148.799       4.661      74.324
  H     -149.325       4.541      72.351
  H     -149.978       5.946      73.220
  H     -150.660       4.316      73.505
  P     -149.200       5.148      75.799
  C     -150.806       3.138      76.154
  O     -150.657       4.550      76.100
  C     -152.170       2.790      76.742
  O     -152.282       3.332      78.079
  C     -153.346       3.370      75.970
  O     -153.642       2.626      74.803
  C     -154.445       3.288      77.016
  O     -155.047       1.983      77.046
  C     -153.680       3.575      78.327
  N     -153.923       4.927      78.820
  C     -154.909       5.044      79.795
  O     -155.549       4.085      80.227
  N     -155.166       6.315      80.233
  C     -154.574       7.454      79.775
  O     -154.902       8.571      80.158
  C     -153.528       7.267      78.755
  C     -153.261       6.031      78.324
  O     -149.464       6.715      75.604
  O     -148.181       4.874      76.854
  H     -148.702       7.223      75.939
  H     -155.704       2.003      77.769
  H     -155.886       6.422      80.931
  H     -153.034       8.151      78.373
  H     -152.510       5.871      77.557
  H     -153.989       2.870      79.109
  H     -155.245       4.000      76.814
  H     -153.161       4.425      75.735
  H     -152.251       1.696      76.808
  H     -150.024       2.712      76.791
  H     -150.701       2.729      75.145
  P     -154.600       3.284      73.698
  C     -153.260       5.122      72.386
  O     -154.086       4.788      73.485
  O     -155.958       3.449      74.525
  O     -154.716       2.478      72.449
  H     -155.809       3.672      75.460
  H     -153.026       6.166      72.420
  H     -153.773       4.901      71.474
  H     -152.356       4.552      72.433

 6  7  8  9  10  11  12  13  14  15  16  27  31  32  33  34  35 0
 6-311+G(2d,p)
 ****
 36  37 0
 6-311+G(2d,p)
 ****
 1  2  3  4  5  17  18  19  20  21  22  23  24  25 0
 3-21G
 ****
 26  28  29  30  38  39  40  41  42  43  44  45 0
 3-21G
 ****


