%nproc=1
%NoSave
%Mem=1900MB
#P OB98/GEN NMR

erre ene a

0 1
  C       92.906     282.898    -203.448
  O       91.847     283.756    -203.826
  H       92.665     282.453    -202.479
  H       93.836     283.465    -203.348
  H       93.036     282.095    -204.179
  P       91.878     284.422    -205.283
  C       92.452     286.938    -205.249
  O       92.954     285.608    -205.233
  C       92.252     287.432    -203.817
  O       93.374     287.043    -202.995
  C       92.155     288.948    -203.698
  O       90.887     289.413    -204.112
  C       92.451     289.139    -202.220
  O       91.282     288.885    -201.424
  C       93.530     288.061    -201.976
  N       94.888     288.604    -201.972
  C       95.157     289.598    -201.040
  O       94.311     290.046    -200.264
  N       96.436     290.093    -201.046
  C       97.412     289.777    -201.944
  O       98.516     290.311    -201.961
  C       97.063     288.737    -202.926
  C       95.838     288.205    -202.893
  O       90.549     284.798    -205.850
  O       92.606     283.316    -206.188
  H       91.564     288.969    -200.491
  H       91.941     282.863    -206.743
  H       96.646     290.824    -200.384
  H       97.815     288.445    -203.646
  H       95.562     287.442    -203.610
  H       93.359     287.562    -201.009
  H       92.782     290.151    -201.991
  H       92.952     289.423    -204.282
  H       91.352     286.950    -203.410
  H       91.492     286.944    -205.773
  H       93.158     287.579    -205.788
  P       90.660     290.973    -204.394
  C       89.071     292.362    -202.926
  O       90.319     291.677    -202.994
  O       89.722     291.292    -205.508
  O       92.132     291.518    -204.720
  H       92.148     291.886    -205.623
  H       88.951     292.789    -201.952
  H       88.275     291.672    -203.113
  H       89.050     293.139    -203.662

 6  7  8  9  10  11  12  13  14  15  16  26  31  32  33  34  35 0
 6-311+G(2d,p)
 ****
 36  37 0
 6-311+G(2d,p)
 ****
 1  2  3  4  5  17  18  19  20  21  22  23  24  25 0
 3-21G
 ****
 27  28  29  30  38  39  40  41  42  43  44  45 0
 3-21G
 ****


