%nproc=1
%NoSave
%Mem=1900MB
#P OB98/GEN NMR

erre ene a

0 1
  C     -287.788      -6.821     562.028
  O     -287.748      -7.342     560.714
  H     -287.369      -5.816     562.020
  H     -287.179      -7.449     562.687
  H     -288.815      -6.777     562.399
  P     -288.590      -8.681     560.432
  C     -286.508     -10.214     560.185
  O     -287.685      -9.916     560.927
  C     -285.855     -11.491     560.718
  O     -286.859     -12.547     560.763
  C     -284.691     -11.998     559.854
  O     -283.666     -12.510     560.715
  C     -285.306     -13.133     559.055
  O     -284.335     -14.095     558.627
  C     -286.328     -13.675     560.041
  N     -287.527     -18.060     557.849
  C     -286.377     -17.681     558.526
  N     -285.401     -18.609     558.627
  N     -286.212     -16.502     559.057
  C     -287.281     -15.688     558.905
  C     -288.467     -15.934     558.262
  C     -288.635     -17.239     557.650
  O     -289.613     -17.629     557.017
  N     -289.298     -14.842     558.297
  C     -288.615     -13.931     558.967
  N     -287.387     -14.402     559.369
  O     -288.548      -8.803     558.835
  O     -289.991      -8.676     560.943
  H     -283.714     -14.234     559.376
  H     -289.453      -8.710     558.477
  H     -287.598     -18.984     557.447
  H     -288.960     -12.930     559.183
  H     -285.879     -14.367     560.773
  H     -285.800     -12.731     558.166
  H     -285.484     -19.556     558.291
  H     -284.269     -11.225     559.211
  H     -284.568     -18.369     559.151
  H     -285.531     -11.317     561.745
  H     -285.808      -9.377     560.276
  H     -286.771     -10.343     559.129
  P     -282.479     -11.506     561.108
  C     -281.126     -11.844     558.917
  O     -281.833     -10.930     559.750
  O     -281.342     -12.489     561.673
  O     -282.865     -10.475     562.120
  H     -281.277     -12.392     562.646
  H     -280.754     -11.328     558.057
  H     -281.786     -12.627     558.606
  H     -280.307     -12.264     559.463

 6  7  8  9  10  11  12  13  14  15  26  29  33  34 0
 6-311+G(2d,p)
 ****
 36  38  39  40  41 0
 6-311+G(2d,p)
 ****
 1  2  3  4  5  16  17  18  19  20  21  22  23  24  25 0
 3-21G
 ****
 27  28  30  31  32  35  37  42  43  44  45  46  47 0
 3-21G
 ****
 48  49 0
 3-21G
 ****


