%nproc=1
%NoSave
%Mem=1900MB
#P OB98/GEN NMR

erre ene a

0 1
  C      262.838     -75.441       8.948
  O      262.193     -76.098      10.026
  P      261.411     -75.279      11.158
  C      262.103     -73.658      13.035
  O      262.550     -74.596      12.069
  C      263.254     -73.176      13.924
  O      264.113     -72.284      13.156
  C      262.821     -72.428      15.189
  O      263.785     -72.747      16.202
  C      262.948     -70.969      14.771
  O      263.024     -70.082      15.878
  C      264.206     -71.034      13.883
  N      264.307     -69.884      12.997
  C      264.930     -68.745      13.516
  O      265.287     -68.719      14.702
  N      265.081     -67.641      12.715
  C      264.561     -67.643      11.521
  N      264.745     -66.528      10.763
  C      263.788     -68.778      10.977
  C      263.715     -69.860      11.756
  O      260.384     -76.056      11.911
  O      260.804     -74.023      10.372
  H      262.906     -69.163      15.545
  H      260.005     -74.293       9.853
  H      263.324     -68.717      10.002
  H      263.169     -70.744      11.443
  H      265.113     -71.086      14.508
  H      262.076     -70.682      14.170
  H      261.809     -72.681      15.522
  H      263.861     -74.054      14.196
  H      265.297     -65.782      11.169
  H      261.361     -74.152      13.669
  H      264.451     -66.461       9.800
  H      261.617     -72.814      12.543
  P      263.363     -72.901      17.740
  C      262.724     -71.332      19.664
  O      263.047     -71.429      18.288
  O      264.314     -73.694      18.583
  O      261.913     -73.588      17.685
  H      261.693     -73.948      18.569
  H      262.814     -70.286      19.979
  H      263.408     -71.942      20.269
  H      261.696     -71.673      19.822
  H      263.297     -76.168       8.311
  H      263.586     -74.779       9.330
  H      262.118     -74.881       8.389

 3  4  5  6  7  8  9  10  11  12  13  23  27  28  29  30  32 0
 6-311+G(2d,p)
 ****
 34  35 0
 6-311+G(2d,p)
 ****
 1  2  14  15  16  17  18  19  20  21  22  24  25  26 0
 3-21G
 ****
 31  33  36  37  38  39  40  41  42  43  44  45  46 0
 3-21G
 ****


