%nproc=1
%NoSave
%Mem=1900MB
#P OB98/GEN NMR

erre ene a

0 1
  C     -364.416     272.068     241.842
  O     -364.909     271.561     243.064
  H     -363.413     271.667     241.680
  H     -364.359     273.160     241.890
  H     -365.051     271.765     241.008
  P     -366.466     271.720     243.397
  C     -366.598     272.437     245.876
  O     -366.657     271.359     244.949
  C     -366.058     271.960     247.233
  O     -364.643     271.666     247.101
  C     -366.198     273.045     248.306
  O     -366.324     272.494     249.615
  C     -364.869     273.783     248.206
  O     -364.531     274.487     249.401
  C     -363.914     272.639     247.868
  N     -359.334     271.357     246.021
  C     -360.149     270.667     246.901
  N     -359.676     269.476     247.347
  N     -361.301     271.110     247.323
  C     -361.608     272.346     246.855
  C     -360.880     273.136     246.002
  C     -359.617     272.619     245.510
  O     -358.849     273.197     244.748
  N     -361.515     274.332     245.756
  C     -362.623     274.266     246.468
  N     -362.742     273.065     247.132
  O     -367.136     270.462     242.668
  O     -367.095     273.005     242.959
  H     -363.560     274.592     249.410
  H     -368.080     270.627     242.503
  H     -358.470     270.959     245.709
  H     -363.377     275.038     246.521
  H     -363.565     272.146     248.784
  H     -364.946     274.517     247.408
  H     -358.713     269.198     247.199
  H     -367.033     273.718     248.117
  H     -360.095     269.117     248.209
  H     -366.551     271.020     247.521
  H     -367.611     272.830     245.983
  H     -365.977     273.241     245.477
  P     -367.134     273.325     250.715
  C     -365.320     273.850     252.578
  O     -366.462     273.129     252.153
  O     -368.524     272.545     250.838
  O     -367.335     274.771     250.380
  H     -369.260     273.113     250.539
  H     -365.057     273.549     253.571
  H     -365.536     274.898     252.569
  H     -364.504     273.648     251.916

 6  7  8  9  10  11  12  13  14  15  26  29  33  34 0
 6-311+G(2d,p)
 ****
 36  38  39  40  41 0
 6-311+G(2d,p)
 ****
 1  2  3  4  5  16  17  18  19  20  21  22  23  24  25 0
 3-21G
 ****
 27  28  30  31  32  35  37  42  43  44  45  46  47 0
 3-21G
 ****
 48  49 0
 3-21G
 ****


