%nproc=1
%NoSave
%Mem=1900MB
#P OB98/GEN NMR

erre ene a

0 1
  C     1083.976    -132.551    -945.730
  O     1084.822    -133.346    -944.913
  P     1085.942    -132.572    -944.056
  C     1087.670    -132.129    -945.969
  O     1087.341    -132.878    -944.817
  C     1089.155    -131.946    -946.112
  O     1089.673    -131.179    -945.021
  C     1089.953    -133.250    -946.109
  O     1089.979    -133.876    -947.388
  C     1091.343    -132.736    -945.748
  O     1091.975    -132.189    -946.922
  C     1091.034    -131.620    -944.741
  N     1094.003    -133.971    -941.321
  C     1094.175    -133.752    -942.645
  N     1093.325    -133.106    -943.472
  C     1092.195    -132.743    -942.857
  C     1091.878    -132.962    -941.516
  C     1092.863    -133.602    -940.717
  N     1092.703    -133.816    -939.371
  N     1090.625    -132.436    -941.234
  C     1090.217    -131.939    -942.339
  N     1091.118    -132.068    -943.358
  O     1086.061    -133.449    -942.711
  O     1085.658    -131.135    -943.767
  H     1091.373    -131.496    -947.287
  H     1086.433    -132.898    -941.991
  H     1095.090    -134.096    -943.077
  H     1089.257    -131.422    -942.489
  H     1091.694    -130.755    -944.850
  H     1092.000    -133.532    -945.384
  H     1089.618    -133.931    -945.318
  H     1089.361    -131.382    -947.049
  H     1087.187    -131.141    -945.901
  H     1093.509    -134.118    -938.839
  H     1091.952    -133.346    -938.895
  H     1087.250    -132.633    -946.865
  P     1089.256    -135.329    -947.476
  C     1091.221    -136.182    -945.969
  O     1090.417    -136.379    -947.125
  O     1089.043    -135.519    -949.060
  O     1087.979    -135.439    -946.700
  H     1088.280    -136.128    -949.211
  H     1091.702    -137.101    -945.678
  H     1090.568    -135.867    -945.117
  H     1091.954    -135.386    -946.162
  H     1083.281    -133.182    -946.244
  H     1084.568    -132.018    -946.444
  H     1083.441    -131.855    -945.118

 3  4  5  6  7  8  9  10  11  12  22  25  29  30  31  32 0
 6-311+G(2d,p)
 ****
 33  36  37 0
 6-311+G(2d,p)
 ****
 1  2  13  14  15  16  17  18  19  20  21  23  24  26 0
 3-21G
 ****
 27  28  34  35  38  39  40  41  42  43  44  45  46  47  48 0
 3-21G
 ****


