%nproc=1
%NoSave
%Mem=1900MB
#P OB98/GEN NMR

erre ene a

0 1
  C      157.599     -17.876     130.368
  O      157.830     -19.107     131.031
  H      156.521     -17.694     130.336
  H      157.981     -17.920     129.342
  H      158.078     -17.060     130.915
  P      159.359     -19.580     131.155
  C      158.868     -19.937     133.671
  O      159.725     -19.348     132.701
  C      158.584     -18.944     134.801
  O      157.710     -17.901     134.339
  C      157.906     -19.561     136.021
  O      158.872     -20.163     136.877
  C      157.287     -18.322     136.665
  O      158.292     -17.618     137.428
  C      156.867     -17.480     135.448
  N      152.210     -15.323     135.628
  C      153.360     -15.029     136.273
  N      154.542     -15.680     136.223
  C      154.477     -16.732     135.388
  C      153.370     -17.149     134.659
  C      152.194     -16.393     134.797
  N      151.014     -16.696     134.141
  N      153.672     -18.273     133.913
  C      154.954     -18.484     134.134
  N      155.478     -17.603     135.052
  O      160.303     -18.986     130.156
  O      159.195     -21.173     131.072
  H      157.871     -16.801     137.763
  H      158.415     -21.463     131.583
  H      153.324     -14.152     136.929
  H      155.552     -19.246     133.649
  H      157.055     -16.409     135.614
  H      156.483     -18.570     137.357
  H      157.110     -20.259     135.741
  H      159.537     -18.466     135.082
  H      159.330     -20.845     134.085
  H      150.183     -16.223     134.444
  H      150.977     -17.566     133.627
  H      157.939     -20.219     133.166
  P      158.708     -21.681     137.370
  C      161.265     -21.980     137.489
  O      160.042     -22.428     136.890
  O      157.421     -22.328     136.969
  O      158.898     -21.600     138.961
  H      158.554     -22.415     139.378
  H      162.083     -22.546     137.096
  H      161.214     -22.116     138.549
  H      161.411     -20.943     137.270

 6  7  8  9  10  11  12  13  14  15  25  28  32  33  34  35 0
 6-311+G(2d,p)
 ****
 36  39  40 0
 6-311+G(2d,p)
 ****
 1  2  3  4  5  16  17  18  19  20  21  22  23  24 0
 3-21G
 ****
 26  27  29  30  31  37  38  41  42  43  44  45  46  47 0
 3-21G
 ****
 48 0
 3-21G
 ****


