%nproc=1
%NoSave
%Mem=1900MB
#P OB98/GEN NMR

erre ene a

0 1
  C     -843.335     181.507    -893.080
  O     -842.006     181.371    -893.540
  H     -843.355     182.235    -892.260
  H     -843.698     180.555    -892.690
  H     -844.000     181.851    -893.870
  P     -841.772     180.471    -894.840
  C     -840.240     181.788    -896.470
  O     -841.571     181.473    -896.080
  C     -840.004     183.305    -896.360
  O     -840.118     183.708    -894.950
  C     -838.604     183.747    -896.840
  O     -838.732     185.006    -897.520
  C     -837.823     183.940    -895.560
  O     -836.740     184.855    -895.700
  C     -838.931     184.405    -894.590
  N     -838.566     184.141    -893.190
  C     -838.578     185.236    -892.330
  O     -838.895     186.361    -892.750
  N     -838.203     185.056    -891.020
  C     -837.740     183.903    -890.650
  N     -837.347     183.799    -889.340
  C     -837.631     182.733    -891.540
  C     -838.055     182.915    -892.780
  O     -843.213     179.829    -895.120
  O     -840.709     179.417    -894.720
  H     -836.532     185.209    -894.800
  H     -843.143     178.952    -895.530
  H     -837.225     181.793    -891.180
  H     -838.011     182.120    -893.520
  H     -839.128     185.468    -894.710
  H     -837.415     182.985    -895.230
  H     -838.147     183.012    -897.510
  H     -840.789     183.830    -896.910
  H     -837.426     184.617    -888.760
  H     -840.096     181.494    -897.490
  H     -836.938     182.948    -888.960
  H     -839.534     181.243    -895.830
  P     -839.154     184.951    -899.070
  C     -840.397     187.255    -899.010
  O     -840.493     185.844    -899.260
  O     -839.692     183.446    -899.260
  O     -838.022     185.260    -900.000
  H     -839.035     182.932    -899.780
  H     -841.351     187.712    -899.174
  H     -839.676     187.686    -899.673
  H     -840.093     187.418    -897.997

 6  7  8  9  10  11  12  13  14  15  16  26  30  31  32  33  35 0
 6-311+G(2d,p)
 ****
 37  38 0
 6-311+G(2d,p)
 ****
 1  2  3  4  5  17  18  19  20  21  22  23  24  25 0
 3-21G
 ****
 27  28  29  34  36  39  40  41  42  43  44  45  46 0
 3-21G
 ****


