%nproc=1
%NoSave
%Mem=1900MB
#P OB98/GEN NMR

erre ene a

0 1
  C      353.395      92.265    -216.242
  O      352.306      93.085    -215.848
  P      351.119      92.387    -215.021
  C      349.931      94.703    -215.021
  O      349.824      93.302    -215.265
  C      348.676      95.421    -215.513
  O      348.726      95.578    -216.945
  C      347.382      94.679    -215.223
  O      347.013      94.839    -213.869
  C      346.428      95.341    -216.206
  O      345.854      96.533    -215.649
  C      347.355      95.682    -217.398
  N      347.115      94.837    -218.554
  C      345.852      94.965    -219.151
  O      345.022      95.748    -218.677
  N      345.551      94.178    -220.236
  C      346.434      93.338    -220.684
  N      346.085      92.588    -221.768
  C      347.766      93.157    -220.073
  C      348.033      93.925    -219.019
  O      351.511      92.684    -213.501
  O      350.946      90.928    -215.293
  H      345.368      96.243    -214.847
  H      351.138      92.004    -212.910
  H      348.461      92.438    -220.484
  H      348.986      93.855    -218.507
  H      347.216      96.726    -217.706
  H      345.596      94.683    -216.473
  H      347.487      93.614    -215.467
  H      348.656      96.423    -215.062
  H      345.160      92.730    -222.156
  H      350.797      95.095    -215.559
  H      346.705      91.921    -222.201
  H      350.079      94.866    -213.951
  P      346.430      93.559    -213.100
  C      344.893      95.225    -211.895
  O      344.971      94.006    -212.607
  O      347.266      93.573    -211.734
  O      346.519      92.243    -213.800
  H      347.066      92.770    -211.214
  H      343.844      95.488    -211.758
  H      345.389      96.024    -212.458
  H      345.360      95.113    -210.913
  H      354.108      92.853    -216.781
  H      353.038      91.475    -216.869
  H      353.860      91.848    -215.373

 3  4  5  6  7  8  9  10  11  12  13  21  23  27  28  29  30  32 0
 6-311+G(2d,p)
 ****
 34  35 0
 6-311+G(2d,p)
 ****
 1  2  14  15  16  17  18  19  20  22  24  25  26 0
 3-21G
 ****
 31  33  36  37  38  39  40  41  42  43  44  45  46 0
 3-21G
 ****


