%nproc=1
%NoSave
%Mem=1900MB
#P OB98/GEN NMR

erre ene a

0 1
  C     -118.403     -14.163    -427.757
  O     -118.263     -14.796    -429.030
  P     -116.835     -14.768    -429.761
  C     -117.550     -13.874    -432.059
  O     -117.050     -14.988    -431.336
  C     -118.262     -14.286    -433.358
  O     -117.377     -15.093    -434.192
  C     -119.545     -15.100    -433.145
  O     -120.457     -14.715    -434.178
  C     -119.069     -16.528    -433.353
  O     -120.138     -17.422    -433.616
  C     -118.073     -16.318    -434.496
  N     -117.150     -17.435    -434.640
  C     -116.048     -17.251    -435.480
  O     -115.943     -16.213    -436.141
  N     -115.116     -18.255    -435.572
  C     -115.343     -19.396    -434.992
  N     -114.385     -20.357    -435.091
  C     -116.584     -19.688    -434.247
  C     -117.420     -18.667    -434.091
  O     -115.780     -15.632    -429.143
  O     -116.422     -13.217    -429.678
  H     -120.473     -17.263    -434.525
  H     -115.451     -13.154    -429.568
  H     -116.769     -20.680    -433.858
  H     -118.352     -18.774    -433.555
  H     -118.595     -16.171    -435.448
  H     -118.554     -16.875    -432.446
  H     -120.013     -14.925    -432.171
  H     -118.493     -13.373    -433.922
  H     -113.551     -20.155    -435.626
  H     -116.723     -13.200    -432.300
  H     -114.470     -21.254    -434.629
  H     -118.225     -13.298    -431.412
  P     -121.605     -13.646    -433.843
  C     -123.477     -15.456    -433.807
  O     -123.003     -14.244    -434.358
  O     -121.315     -12.501    -434.939
  O     -121.583     -13.060    -432.474
  H     -121.667     -11.654    -434.607
  H     -124.538     -15.561    -434.052
  H     -123.370     -15.464    -432.719
  H     -122.926     -16.300    -434.235
  H     -119.410     -14.273    -427.413
  H     -118.169     -13.123    -427.848
  H     -117.735     -14.619    -427.057

 3  4  5  6  7  8  9  10  11  12  13  23  27  28  29  30  32 0
 6-311+G(2d,p)
 ****
 34  35 0
 6-311+G(2d,p)
 ****
 1  2  14  15  16  17  18  19  20  21  22  24  25  26 0
 3-21G
 ****
 31  33  36  37  38  39  40  41  42  43  44  45  46 0
 3-21G
 ****


