%nproc=1
%NoSave
%Mem=1900MB
#P OB98/GEN NMR

erre ene a

0 1
  C     -160.909      90.208    -430.099
  O     -161.004      88.890    -430.651
  P     -160.941      87.680    -429.593
  C     -158.372      87.420    -429.865
  O     -159.454      87.654    -428.972
  C     -157.345      86.465    -429.242
  O     -156.735      87.061    -428.056
  C     -157.944      85.112    -428.815
  O     -156.933      84.122    -429.040
  C     -158.169      85.331    -427.320
  O     -158.364      84.117    -426.605
  C     -156.895      86.109    -426.986
  N     -156.451      85.474    -421.935
  C     -156.345      84.606    -422.966
  N     -156.480      84.853    -424.290
  C     -156.745      86.155    -424.495
  C     -156.880      87.158    -423.548
  C     -156.722      86.777    -422.209
  N     -156.845      87.649    -421.149
  N     -157.172      88.377    -424.161
  C     -157.293      88.078    -425.445
  N     -156.957      86.774    -425.704
  O     -160.993      86.374    -430.513
  O     -162.038      87.715    -428.576
  H     -158.641      84.313    -425.687
  H     -161.900      86.009    -430.534
  H     -156.129      83.570    -422.693
  H     -157.602      88.763    -426.222
  H     -156.007      85.467    -426.970
  H     -159.056      85.945    -427.167
  H     -158.850      84.841    -429.362
  H     -156.542      86.299    -429.977
  H     -157.875      88.365    -430.109
  H     -156.712      87.278    -420.215
  H     -157.059      88.622    -421.307
  H     -158.766      87.025    -430.812
  P     -156.786      83.496    -430.520
  C     -157.746      81.238    -429.775
  O     -157.931      82.373    -430.596
  O     -155.472      82.599    -430.326
  O     -156.693      84.482    -431.645
  H     -155.545      82.033    -429.532
  H     -158.626      80.593    -429.868
  H     -157.628      81.538    -428.732
  H     -156.859      80.669    -430.103
  H     -160.962      90.930    -430.887
  H     -159.978      90.312    -429.582
  H     -161.716      90.367    -429.415

 3  4  5  6  7  8  9  10  11  12  22  25  29  30  31  32 0
 6-311+G(2d,p)
 ****
 33  36  37 0
 6-311+G(2d,p)
 ****
 1  2  13  14  15  16  17  18  19  20  21  23  24  26 0
 3-21G
 ****
 27  28  34  35  38  39  40  41  42  43  44  45  46  47  48 0
 3-21G
 ****


