%nproc=1
%NoSave
%Mem=1900MB
#P OB98/GEN NMR

erre ene a

0 1
  C     -441.298     518.460     515.206
  O     -441.283     517.511     516.246
  P     -440.182     516.360     516.381
  C     -440.066     516.658     518.979
  O     -440.228     515.781     517.882
  C     -440.500     515.984     520.296
  O     -441.944     515.807     520.273
  C     -439.872     514.575     520.451
  O     -439.405     514.298     521.761
  C     -440.935     513.661     519.853
  O     -440.805     512.315     520.277
  C     -442.217     514.380     520.271
  N     -446.192     511.344     519.341
  C     -445.383     511.394     520.459
  N     -445.553     510.404     521.360
  N     -444.478     512.325     520.649
  C     -444.345     513.191     519.615
  C     -445.097     513.228     518.457
  C     -446.116     512.228     518.277
  O     -446.773     512.064     517.240
  N     -444.645     514.211     517.592
  C     -443.607     514.724     518.217
  N     -443.382     514.117     519.433
  O     -438.842     516.657     515.788
  O     -440.849     515.163     515.525
  H     -440.976     512.288     521.242
  H     -440.111     514.675     515.098
  H     -446.827     510.547     519.208
  H     -442.977     515.522     517.830
  H     -442.522     514.095     521.288
  H     -440.819     513.674     518.768
  H     -446.128     509.608     521.160
  H     -438.947     514.517     519.828
  H     -444.808     510.274     522.053
  H     -440.266     516.648     521.129
  H     -440.708     517.525     518.767
  H     -439.043     517.027     519.045
  P     -438.290     513.256     522.219
  C     -436.392     514.432     523.483
  O     -437.634     513.769     523.584
  O     -437.085     513.432     521.168
  O     -438.735     511.823     522.250
  H     -436.707     512.554     520.965
  H     -435.927     514.493     524.461
  H     -436.549     515.446     523.104
  H     -435.709     513.882     522.806
  H     -442.130     519.120     515.337
  H     -441.387     517.957     514.266
  H     -440.389     519.024     515.225

 3  4  5  6  7  8  9  10  11  12  23  26  30  31 0
 6-311+G(2d,p)
 ****
 33  35  36  37  38 0
 6-311+G(2d,p)
 ****
 1  2  13  14  15  16  17  18  19  20  21  22  24  25 0
 3-21G
 ****
 27  28  29  32  34  39  40  41  42  43  44  45  46  47  48  49 0
 3-21G
 ****


