%nproc=1
%NoSave
%Mem=1900MB
#P OB98/GEN NMR

erre ene a

0 1
  C      511.910      92.857    -137.078
  O      512.797      93.646    -137.847
  H      512.495      92.272    -136.364
  H      511.351      92.173    -137.724
  H      511.216      93.502    -136.528
  P      512.140      94.503    -139.042
  C      513.719      96.481    -138.402
  O      513.284      95.574    -139.406
  C      514.909      97.290    -138.910
  O      516.135      96.532    -138.766
  C      514.835      97.664    -140.387
  O      513.967      98.755    -140.648
  C      516.290      98.034    -140.635
  O      516.568      99.320    -140.051
  C      517.014      96.905    -139.870
  N      517.307      95.740    -140.712
  C      517.827      94.612    -140.066
  O      518.026      94.620    -138.854
  N      518.150      93.508    -140.822
  C      517.946      93.514    -142.104
  N      518.288      92.392    -142.796
  C      517.386      94.672    -142.823
  C      517.089      95.735    -142.078
  O      511.045      95.400    -138.293
  O      511.619      93.721    -140.199
  H      516.264      99.988    -140.691
  H      510.681      96.075    -138.919
  H      517.245      94.639    -143.896
  H      516.672      96.628    -142.537
  H      517.955      97.263    -139.432
  H      516.545      98.103    -141.692
  H      514.581      96.801    -141.013
  H      515.005      98.183    -138.276
  H      518.723      91.636    -142.280
  H      514.004      95.903    -137.511
  H      518.306      92.357    -143.809
  H      512.905      97.164    -138.134
  P      513.526      99.002    -142.174
  C      511.129      99.972    -141.897
  O      512.503     100.230    -142.175
  O      512.600      97.739    -142.495
  O      514.664      99.119    -143.140
  H      512.697      97.462    -143.429
  H      510.579     100.889    -141.935
  H      511.037      99.541    -140.922
  H      510.739      99.292    -142.625

 6  7  8  9  10  11  12  13  14  15  16  26  30  31  32  33  35 0
 6-311+G(2d,p)
 ****
 37  38 0
 6-311+G(2d,p)
 ****
 1  2  3  4  5  17  18  19  20  21  22  23  24  25 0
 3-21G
 ****
 27  28  29  34  36  39  40  41  42  43  44  45  46 0
 3-21G
 ****


