%nproc=1
%NoSave
%Mem=1900MB
#P OB98/GEN NMR

erre ene a

0 1
  C      182.298    -438.583     147.822
  O      180.915    -438.750     148.161
  P      180.157    -437.494     148.802
  C      180.147    -435.906     146.716
  O      180.684    -436.210     147.998
  C      179.338    -434.612     146.782
  O      180.185    -433.495     147.138
  C      178.688    -434.212     145.468
  O      177.552    -435.027     145.190
  C      178.374    -432.745     145.728
  O      177.172    -432.621     146.504
  C      179.593    -432.309     146.572
  N      180.565    -431.533     145.810
  C      180.690    -430.184     146.181
  O      180.013    -429.669     147.061
  N      181.599    -429.457     145.461
  C      182.366    -429.919     144.425
  O      183.184    -429.221     143.832
  C      182.154    -431.326     144.059
  C      181.282    -432.058     144.755
  O      180.875    -437.393     150.227
  O      178.677    -437.669     148.850
  H      181.815    -437.628     150.191
  H      177.355    -433.046     147.371
  H      181.711    -428.489     145.717
  H      182.726    -431.723     143.229
  H      181.105    -433.095     144.491
  H      179.263    -431.696     147.421
  H      178.225    -432.181     144.810
  H      179.416    -434.301     144.649
  H      178.580    -434.728     147.565
  H      179.493    -436.718     146.386
  H      180.966    -435.834     145.997
  P      176.981    -434.976     143.688
  C      178.190    -437.102     142.720
  O      178.081    -435.689     142.759
  O      177.141    -433.427     143.337
  O      175.591    -435.511     143.549
  H      177.985    -433.055     143.622
  H      178.719    -437.380     141.815
  H      177.202    -437.569     142.723
  H      178.756    -437.442     143.593
  H      182.676    -439.494     147.406
  H      182.854    -438.335     148.702
  H      182.397    -437.795     147.104

 3  4  5  6  7  8  9  10  11  12  13  24  28  29  30  31  32 0
 6-311+G(2d,p)
 ****
 33  34 0
 6-311+G(2d,p)
 ****
 1  2  14  15  16  17  18  19  20  21  22  23  25  26  27 0
 3-21G
 ****
 35  36  37  38  39  40  41  42  43  44  45 0
 3-21G
 ****


