%nproc=1
%NoSave
%Mem=1900MB
#P OB98/GEN NMR

erre ene a

0 1
  C     -121.618     102.313     198.604
  O     -120.690     102.321     199.672
  P     -119.673     101.101     199.853
  C     -120.950      99.843     201.695
  O     -120.518      99.827     200.339
  C     -120.603      98.522     202.378
  O     -120.956      97.410     201.531
  C     -119.118      98.351     202.678
  O     -118.740      99.117     203.807
  C     -119.030      96.843     202.872
  O     -119.438      96.476     204.201
  C     -120.044      96.331     201.839
  N     -119.320      92.242     198.876
  C     -119.856      92.380     200.107
  N     -119.979      93.501     200.849
  C     -119.453      94.552     200.202
  C     -118.841      94.562     198.958
  C     -118.803      93.338     198.268
  N     -118.315      93.199     196.987
  N     -118.396      95.833     198.649
  C     -118.726      96.572     199.688
  N     -119.422      95.855     200.621
  O     -118.456     101.397     200.665
  O     -119.271     100.713     198.353
  H     -120.363      96.769     204.311
  H     -118.308     100.823     198.238
  H     -120.247      91.469     200.553
  H     -118.501      97.624     199.804
  H     -120.651      95.508     202.236
  H     -118.015      96.458     202.727
  H     -118.525      98.636     201.803
  H     -121.195      98.448     203.299
  H     -122.034      99.993     201.709
  H     -118.470      92.312     196.536
  H     -118.214      94.035     196.418
  H     -120.470     100.676     202.219
  P     -117.343      99.895     203.809
  C     -115.846      98.071     204.812
  O     -116.192      98.791     203.643
  O     -117.143     100.863     204.927
  O     -117.323     100.637     202.387
  H     -116.836     101.478     202.468
  H     -115.205      98.688     205.446
  H     -115.297      97.172     204.518
  H     -116.740      97.775     205.367
  H     -122.212     103.202     198.641
  H     -122.253     101.456     198.690
  H     -121.091     102.274     197.674

 3  4  5  6  7  8  9  10  11  12  22  25  29  30  31  32 0
 6-311+G(2d,p)
 ****
 33  36  37 0
 6-311+G(2d,p)
 ****
 1  2  13  14  15  16  17  18  19  20  21  23  24  26 0
 3-21G
 ****
 27  28  34  35  38  39  40  41  42  43  44  45  46  47  48 0
 3-21G
 ****


