%nproc=1
%NoSave
%Mem=1900MB
#P OB98/GEN NMR

erre ene a

0 1
  C      221.901       3.793     170.675
  O      221.329       5.056     170.949
  H      221.187       3.015     170.960
  H      222.817       3.665     171.258
  H      222.123       3.699     169.608
  P      222.137       6.345     170.449
  C      224.574       7.247     170.845
  O      223.520       6.389     171.268
  C      225.561       7.462     171.989
  O      225.024       8.361     172.980
  C      225.877       6.201     172.776
  O      226.678       5.292     172.053
  C      226.569       6.800     173.993
  O      227.929       7.146     173.697
  C      225.718       8.074     174.227
  N      224.791       7.929     175.341
  C      225.352       8.043     176.620
  O      226.558       8.266     176.750
  N      224.540       7.875     177.713
  C      223.274       7.639     177.549
  N      222.526       7.473     178.673
  C      222.638       7.538     176.221
  C      223.446       7.684     175.173
  O      221.308       7.552     171.089
  O      222.329       6.443     168.969
  H      227.900       7.710     172.897
  H      221.176       7.469     172.049
  H      221.578       7.348     176.130
  H      223.062       7.624     174.163
  H      226.367       8.937     174.432
  H      226.592       6.106     174.835
  H      224.951       5.725     173.117
  H      226.471       7.917     171.572
  H      223.000       7.530     179.565
  H      224.179       8.204     170.488
  H      221.539       7.252     178.667
  H      225.075       6.763     170.001
  P      226.545       3.714     172.300
  C      227.195       2.117     174.215
  O      227.419       3.387     173.608
  O      226.857       2.856     171.116
  O      225.047       3.550     172.845
  H      224.856       4.038     173.666
  H      227.829       2.014     175.071
  H      227.416       1.342     173.512
  H      226.172       2.042     174.518

 6  7  8  9  10  11  12  13  14  15  16  26  30  31  32  33  35 0
 6-311+G(2d,p)
 ****
 37  38 0
 6-311+G(2d,p)
 ****
 1  2  3  4  5  17  18  19  20  21  22  23  24  25 0
 3-21G
 ****
 27  28  29  34  36  39  40  41  42  43  44  45  46 0
 3-21G
 ****


