%nproc=1
%NoSave
%Mem=1900MB
#P OB98/GEN NMR

erre ene a

0 1
  C      -43.055     -36.369    -483.654
  O      -42.836     -36.796    -482.325
  H      -44.061     -36.650    -483.970
  H      -42.956     -35.279    -483.691
  H      -42.312     -36.810    -484.328
  P      -42.751     -38.381    -482.077
  C      -44.536     -40.236    -481.680
  O      -44.272     -38.906    -482.109
  C      -45.694     -40.840    -482.477
  O      -46.900     -40.060    -482.197
  C      -45.474     -40.825    -483.998
  O      -46.001     -42.033    -484.549
  C      -46.291     -39.638    -484.466
  O      -46.688     -39.761    -485.829
  C      -47.443     -39.646    -483.475
  N      -51.635     -36.946    -484.578
  C      -51.333     -38.250    -484.736
  N      -50.197     -38.901    -484.414
  C      -49.344     -38.052    -483.821
  C      -49.494     -36.699    -483.593
  C      -50.709     -36.129    -484.013
  N      -51.010     -34.790    -483.893
  N      -48.364     -36.168    -482.987
  C      -47.538     -37.184    -482.862
  N      -48.077     -38.344    -483.347
  O      -42.358     -38.465    -480.525
  O      -41.788     -39.124    -482.946
  H      -47.396     -40.432    -485.894
  H      -41.400     -38.311    -480.425
  H      -52.110     -38.858    -485.192
  H      -46.544     -37.126    -482.437
  H      -48.236     -40.365    -483.748
  H      -45.699     -38.714    -484.363
  H      -44.416     -40.734    -484.262
  H      -45.882     -41.854    -482.112
  H      -44.784     -40.234    -480.608
  H      -51.890     -34.464    -484.267
  H      -50.316     -34.162    -483.527
  H      -43.630     -40.842    -481.837
  P      -44.968     -42.978    -485.356
  C      -43.861     -43.007    -487.676
  O      -44.587     -42.255    -486.734
  O      -45.883     -44.223    -485.804
  O      -43.814     -43.425    -484.519
  H      -45.450     -45.060    -485.561
  H      -43.675     -42.408    -488.543
  H      -44.426     -43.872    -487.954
  H      -42.930     -43.313    -487.247

 6  7  8  9  10  11  12  13  14  15  25  28  32  33  34  35 0
 6-311+G(2d,p)
 ****
 36  39  40 0
 6-311+G(2d,p)
 ****
 1  2  3  4  5  16  17  18  19  20  21  22  23  24 0
 3-21G
 ****
 26  27  29  30  31  37  38  41  42  43  44  45  46  47 0
 3-21G
 ****
 48 0
 3-21G
 ****


