%nproc=1
%NoSave
%Mem=1900MB
#P OB98/GEN NMR

erre ene a

0 1
  C      314.982     343.558    -556.577
  O      315.810     344.704    -556.640
  P      317.146     344.611    -557.525
  C      316.032     345.334    -559.764
  O      316.656     344.285    -559.017
  C      316.917     345.743    -560.942
  O      317.961     346.626    -560.484
  C      317.620     344.586    -561.622
  O      316.738     343.889    -562.466
  C      318.743     345.313    -562.358
  O      318.295     345.773    -563.646
  C      319.049     346.506    -561.421
  N      320.329     346.358    -560.738
  C      321.244     347.405    -560.932
  O      320.953     348.359    -561.661
  N      322.477     347.312    -560.325
  C      322.762     346.283    -559.599
  N      323.997     346.252    -559.026
  C      321.839     345.156    -559.392
  C      320.648     345.254    -559.982
  O      317.800     343.235    -557.036
  O      318.074     345.771    -557.375
  H      317.892     344.985    -564.080
  H      318.766     343.245    -557.169
  H      322.127     344.307    -558.776
  H      319.906     344.471    -559.887
  H      319.079     347.441    -561.995
  H      319.604     344.657    -562.542
  H      318.059     343.910    -560.870
  H      316.296     346.298    -561.661
  H      324.614     347.032    -559.195
  H      315.881     346.206    -559.112
  H      324.311     345.501    -558.430
  H      315.057     344.982    -560.115
  P      317.115     342.385    -562.874
  C      315.936     341.461    -560.800
  O      317.155     341.577    -561.489
  O      318.677     342.524    -563.226
  O      316.344     341.758    -563.986
  H      319.008     341.683    -563.596
  H      316.070     340.765    -559.967
  H      315.160     341.069    -561.460
  H      315.631     342.433    -560.395
  H      314.135     343.764    -555.957
  H      315.536     342.740    -556.165
  H      314.650     343.304    -557.562

 3  4  5  6  7  8  9  10  11  12  13  21  23  27  28  29  30  32 0
 6-311+G(2d,p)
 ****
 34  35 0
 6-311+G(2d,p)
 ****
 1  2  14  15  16  17  18  19  20  22  24  25  26 0
 3-21G
 ****
 31  33  36  37  38  39  40  41  42  43  44  45  46 0
 3-21G
 ****


