%nproc=1
%NoSave
%Mem=1900MB
#P OB98/GEN NMR

erre ene a

0 1
  C     -301.272     163.063    -455.071
  O     -302.092     162.889    -456.234
  P     -302.632     161.403    -456.526
  C     -305.009     162.061    -457.328
  O     -303.752     161.494    -457.675
  C     -305.900     162.240    -458.563
  O     -305.405     163.324    -459.403
  C     -305.991     160.997    -459.447
  O     -307.305     160.959    -460.018
  C     -304.992     161.285    -460.550
  O     -305.226     160.479    -461.699
  C     -305.210     162.785    -460.728
  N     -303.755     165.359    -464.892
  C     -304.942     164.844    -464.519
  N     -305.243     164.151    -463.396
  C     -304.165     164.046    -462.603
  C     -302.882     164.509    -462.857
  C     -302.686     165.196    -464.070
  N     -301.474     165.696    -464.461
  N     -302.028     164.167    -461.823
  C     -302.783     163.502    -460.970
  N     -304.086     163.432    -461.382
  O     -303.467     161.052    -455.207
  O     -301.547     160.406    -456.769
  H     -304.656     160.806    -462.426
  H     -302.988     160.395    -454.673
  H     -305.763     165.006    -465.216
  H     -302.440     163.052    -460.050
  H     -306.101     163.006    -461.329
  H     -303.969     161.076    -460.187
  H     -305.784     160.050    -458.927
  H     -306.908     162.523    -458.221
  H     -304.858     163.035    -456.846
  H     -301.412     166.151    -465.365
  H     -300.662     165.541    -463.881
  H     -305.490     161.430    -456.574
  P     -308.423     160.159    -459.189
  C     -310.349     161.701    -459.996
  O     -309.804     160.393    -459.963
  O     -308.585     161.015    -457.844
  O     -308.067     158.732    -458.907
  H     -308.905     160.445    -457.123
  H     -310.761     161.887    -460.991
  H     -309.594     162.467    -459.770
  H     -311.152     161.769    -459.257
  H     -300.980     164.089    -454.991
  H     -300.399     162.450    -455.155
  H     -301.824     162.780    -454.199

 3  4  5  6  7  8  9  10  11  12  22  25  29  30  31  32 0
 6-311+G(2d,p)
 ****
 33  36  37 0
 6-311+G(2d,p)
 ****
 1  2  13  14  15  16  17  18  19  20  21  23  24  26 0
 3-21G
 ****
 27  28  34  35  38  39  40  41  42  43  44  45  46  47  48 0
 3-21G
 ****


