%nproc=1
%NoSave
%Mem=1900MB
#P OB98/GEN NMR

erre ene a

0 1
  C      294.243    -215.682    -340.741
  O      294.806    -216.955    -341.077
  P      296.184    -217.382    -340.371
  C      295.446    -219.041    -338.511
  O      296.028    -218.870    -339.794
  C      295.805    -220.415    -337.937
  O      295.455    -220.525    -336.544
  C      295.085    -221.570    -338.622
  O      295.734    -221.946    -339.835
  C      295.233    -222.669    -337.584
  O      296.550    -223.253    -337.671
  C      295.087    -221.897    -336.271
  N      291.721    -224.573    -333.485
  C      292.983    -224.847    -333.878
  N      293.809    -224.093    -334.632
  C      293.217    -222.939    -334.977
  C      291.932    -222.525    -334.655
  C      291.166    -223.400    -333.866
  N      289.880    -223.116    -333.467
  N      291.665    -221.281    -335.195
  C      292.775    -220.947    -335.824
  N      293.738    -221.918    -335.729
  O      296.208    -216.475    -339.054
  O      297.392    -217.147    -341.214
  H      296.602    -223.946    -336.987
  H      297.124    -216.223    -338.839
  H      293.387    -225.796    -333.541
  H      292.928    -220.018    -336.354
  H      295.755    -222.268    -335.483
  H      294.517    -223.486    -337.726
  H      294.025    -221.337    -338.777
  H      296.891    -220.552    -338.036
  H      294.358    -218.931    -338.570
  H      289.402    -223.779    -332.883
  H      289.469    -222.229    -333.732
  H      295.798    -218.241    -337.847
  P      294.797    -222.302    -341.086
  C      294.247    -219.775    -341.319
  O      294.697    -220.959    -341.951
  O      293.346    -222.452    -340.421
  O      295.205    -223.534    -341.825
  H      292.813    -223.096    -340.923
  H      294.526    -218.923    -341.943
  H      294.710    -219.653    -340.334
  H      293.159    -219.800    -341.220
  H      293.333    -215.539    -341.286
  H      294.936    -214.907    -340.995
  H      294.039    -215.648    -339.691

 3  4  5  6  7  8  9  10  11  12  22  25  29  30  31  32 0
 6-311+G(2d,p)
 ****
 33  36  37 0
 6-311+G(2d,p)
 ****
 1  2  13  14  15  16  17  18  19  20  21  23  24  26 0
 3-21G
 ****
 27  28  34  35  38  39  40  41  42  43  44  45  46  47  48 0
 3-21G
 ****


