%nproc=1
%NoSave
%Mem=1900MB
#P OB98/GEN NMR

erre ene a

0 1
  C      -30.503     -52.603    -182.370
  O      -31.507     -51.686    -181.985
  P      -32.146     -51.726    -180.518
  C      -31.220     -49.422    -179.886
  O      -31.248     -50.805    -179.562
  C      -32.164     -48.620    -178.992
  O      -31.911     -48.955    -177.601
  C      -32.026     -47.097    -179.139
  O      -33.343     -46.543    -179.040
  C      -31.193     -46.710    -177.935
  O      -31.349     -45.341    -177.585
  C      -31.705     -47.715    -176.898
  N      -30.784     -47.882    -175.783
  C      -31.084     -47.194    -174.605
  O      -32.013     -46.384    -174.581
  N      -30.315     -47.432    -173.494
  C      -29.233     -48.139    -173.605
  N      -28.537     -48.407    -172.467
  C      -28.753     -48.674    -174.895
  C      -29.590     -48.549    -175.923
  O      -32.420     -53.092    -179.984
  O      -33.503     -50.885    -180.657
  H      -34.247     -51.424    -180.322
  H      -31.073     -44.787    -178.344
  H      -27.787     -49.150    -174.962
  H      -29.340     -48.932    -176.905
  H      -32.680     -47.399    -176.505
  H      -30.131     -46.887    -178.149
  H      -31.581     -46.803    -180.095
  H      -33.191     -48.928    -179.217
  H      -28.917     -48.060    -171.597
  H      -31.534     -49.309    -180.926
  H      -27.887     -49.190    -172.402
  H      -30.194     -49.042    -179.804
  P      -33.617     -45.104    -179.706
  C      -35.511     -45.892    -181.292
  O      -34.217     -45.346    -181.172
  O      -32.122     -44.613    -180.033
  O      -34.304     -44.093    -178.849
  H      -32.107     -43.640    -180.063
  H      -35.728     -46.049    -182.352
  H      -36.255     -45.202    -180.885
  H      -35.576     -46.854    -180.776
  H      -30.212     -52.410    -183.381
  H      -30.882     -53.600    -182.293
  H      -29.654     -52.493    -181.728

 3  4  5  6  7  8  9  10  11  12  13  24  27  28  29  30  32 0
 6-311+G(2d,p)
 ****
 34  35 0
 6-311+G(2d,p)
 ****
 1  2  14  15  16  17  18  19  20  21  22  23  25  26 0
 3-21G
 ****
 31  33  36  37  38  39  40  41  42  43  44  45  46 0
 3-21G
 ****


