%nproc=1
%NoSave
%Mem=1900MB
#P OB98/GEN NMR

erre ene a

0 1
  C      493.688    -371.849     185.902
  O      494.263    -370.557     185.859
  H      494.471    -372.610     185.890
  H      493.111    -371.950     186.826
  H      493.017    -371.988     185.051
  P      495.185    -370.215     184.596
  C      493.226    -369.895     182.927
  O      494.371    -370.661     183.284
  C      493.075    -369.865     181.408
  O      492.892    -371.227     180.941
  C      491.893    -369.023     180.898
  O      492.360    -368.004     180.008
  C      491.043    -370.003     180.101
  O      490.521    -369.445     178.898
  C      492.003    -371.152     179.818
  N      490.064    -374.347     176.350
  C      491.028    -373.403     176.255
  N      491.576    -372.660     177.241
  C      491.044    -372.985     178.430
  C      490.073    -373.944     178.689
  C      489.560    -374.627     177.574
  N      488.541    -375.552     177.665
  N      489.777    -373.983     180.041
  C      490.518    -373.043     180.582
  N      491.290    -372.403     179.647
  O      496.359    -371.300     184.695
  O      495.721    -368.824     184.561
  H      490.003    -368.659     179.156
  H      497.226    -370.860     184.586
  H      491.408    -373.215     175.257
  H      490.511    -372.754     181.627
  H      492.609    -370.972     178.915
  H      490.207    -370.333     180.729
  H      491.314    -368.572     181.711
  H      494.016    -369.499     180.977
  H      493.343    -368.871     183.293
  H      488.152    -375.907     176.805
  H      488.085    -375.680     178.555
  H      492.342    -370.332     183.398
  P      492.662    -366.562     180.660
  C      495.164    -367.094     181.134
  O      493.894    -366.739     181.670
  O      491.413    -366.347     181.643
  O      492.789    -365.462     179.664
  H      491.246    -365.389     181.763
  H      495.877    -367.173     181.928
  H      495.482    -366.342     180.443
  H      495.088    -368.034     180.628

 6  7  8  9  10  11  12  13  14  15  25  28  32  33  34  35 0
 6-311+G(2d,p)
 ****
 36  39  40 0
 6-311+G(2d,p)
 ****
 1  2  3  4  5  16  17  18  19  20  21  22  23  24 0
 3-21G
 ****
 26  27  29  30  31  37  38  41  42  43  44  45  46  47  48 0
 3-21G
 ****


