%nproc=1
%NoSave
%Mem=1900MB
#P OB98/GEN NMR

erre ene a

0 1
  C     -131.518    -164.056      78.424
  O     -132.139    -162.787      78.402
  H     -131.438    -164.425      77.398
  H     -132.113    -164.766      79.005
  H     -130.511    -163.980      78.847
  P     -132.437    -162.047      79.793
  C     -135.000    -162.298      79.602
  O     -133.830    -162.631      80.342
  C     -136.200    -162.154      80.552
  O     -136.449    -163.451      81.152
  C     -135.939    -161.140      81.681
  O     -136.957    -160.146      81.781
  C     -135.684    -162.029      82.894
  O     -135.976    -161.426      84.134
  C     -136.502    -163.288      82.582
  N     -136.016    -164.493      83.253
  C     -136.897    -165.144      84.118
  O     -138.053    -164.794      84.345
  N     -136.396    -166.266      84.737
  C     -135.138    -166.772      84.594
  O     -134.751    -167.784      85.174
  C     -134.248    -166.023      83.692
  C     -134.716    -164.935      83.075
  O     -132.355    -160.558      79.762
  O     -131.362    -162.673      80.804
  H     -135.625    -162.017      84.835
  H     -130.653    -162.024      80.971
  H     -137.031    -166.755      85.350
  H     -133.235    -166.393      83.567
  H     -134.088    -164.360      82.403
  H     -137.546    -163.148      82.871
  H     -134.618    -162.293      82.908
  H     -135.034    -160.552      81.474
  H     -137.084    -161.883      79.963
  H     -135.184    -163.100      78.883
  H     -134.840    -161.358      79.064
  P     -136.808    -158.626      81.311
  C     -136.196    -157.883      83.764
  O     -135.894    -157.852      82.373
  O     -138.070    -157.950      80.888
  O     -135.850    -158.720      80.013
  H     -136.124    -157.995      79.417
  H     -135.470    -157.308      84.300
  H     -136.176    -158.895      84.111
  H     -137.169    -157.469      83.927

 6  7  8  9  10  11  12  13  14  15  16  26  31  32  33  34  35 0
 6-311+G(2d,p)
 ****
 36  37 0
 6-311+G(2d,p)
 ****
 1  2  3  4  5  17  18  19  20  21  22  23  24  25 0
 3-21G
 ****
 27  28  29  30  38  39  40  41  42  43  44  45 0
 3-21G
 ****


