%nproc=1
%NoSave
%Mem=1900MB
#P OB98/GEN NMR

erre ene a

0 1
  C      665.668     -62.591     376.373
  O      664.727     -62.213     377.362
  H      665.301     -62.288     375.389
  H      666.614     -62.076     376.567
  H      665.844     -63.670     376.397
  P      663.374     -63.069     377.456
  C      662.855     -63.444     379.973
  O      662.651     -62.631     378.824
  C      661.973     -62.982     381.132
  O      662.634     -61.871     381.804
  C      660.575     -62.497     380.702
  O      659.628     -62.923     381.686
  C      660.694     -60.976     380.765
  O      659.446     -60.332     380.972
  C      661.681     -60.801     381.921
  N      660.929     -55.829     382.721
  C      660.235     -56.921     383.097
  N      660.538     -58.220     382.891
  C      661.721     -58.339     382.260
  C      662.540     -57.315     381.810
  C      662.090     -56.009     382.046
  N      662.764     -54.886     381.582
  N      663.646     -57.846     381.155
  C      663.474     -59.156     381.194
  N      662.323     -59.502     381.848
  O      663.918     -64.544     377.773
  O      662.508     -63.042     376.240
  H      659.595     -59.378     381.114
  H      664.116     -65.005     376.942
  H      659.312     -56.723     383.642
  H      664.130     -59.891     380.744
  H      661.194     -60.879     382.905
  H      661.124     -60.612     379.823
  H      660.262     -62.847     379.712
  H      661.892     -63.788     381.863
  H      663.909     -63.378     380.276
  H      662.315     -53.997     381.714
  H      663.573     -55.004     380.998
  H      662.633     -64.489     379.719
  P      658.237     -63.539     381.163
  C      658.584     -66.000     381.977
  O      657.851     -64.786     382.100
  O      658.652     -64.232     379.777
  O      657.153     -62.521     380.983
  H      657.909     -64.176     379.143
  H      658.200     -66.720     382.669
  H      659.616     -65.816     382.190
  H      658.487     -66.376     380.980

 6  7  8  9  10  11  12  13  14  15  25  28  32  33  34  35 0
 6-311+G(2d,p)
 ****
 36  39  40 0
 6-311+G(2d,p)
 ****
 1  2  3  4  5  16  17  18  19  20  21  22  23  24 0
 3-21G
 ****
 26  27  29  30  31  37  38  41  42  43  44  45  46  47 0
 3-21G
 ****
 48 0
 3-21G
 ****


