%nproc=1
%NoSave
%Mem=1900MB
#P OB98/GEN NMR

erre ene a

0 1
  C       88.019     136.052     599.589
  O       87.994     135.007     598.604
  P       87.661     135.414     597.086
  C       86.582     133.142     596.377
  O       87.655     134.066     596.202
  C       86.755     131.960     595.428
  O       86.846     132.380     594.046
  C       88.006     131.130     595.692
  O       87.809     130.190     596.739
  C       88.165     130.398     594.364
  O       87.273     129.275     594.323
  C       87.734     131.463     593.352
  N       92.153     131.065     590.917
  C       91.252     130.083     591.298
  N       91.574     128.812     590.990
  N       90.150     130.329     591.942
  C       89.939     131.656     592.170
  C       90.752     132.713     591.835
  C       91.992     132.418     591.141
  O       92.828     133.246     590.783
  N       90.216     133.907     592.245
  C       89.069     133.573     592.807
  N       88.855     132.211     592.801
  O       89.008     136.141     596.606
  O       86.468     136.294     596.932
  H       87.732     128.528     594.753
  H       88.801     136.790     595.912
  H       92.994     130.814     590.425
  H       88.352     134.272     593.229
  H       87.185     131.048     592.504
  H       89.178     130.004     594.227
  H       92.393     128.547     590.448
  H       88.877     131.776     595.870
  H       90.915     128.083     591.240
  H       85.867     131.301     595.535
  H       85.618     133.637     596.187
  H       86.549     132.821     597.428
  P       88.315     130.582     598.211
  C       89.555     128.392     598.855
  O       88.420     129.202     599.029
  O       87.041     131.320     598.840
  O       89.537     131.453     598.241
  H       87.333     132.005     599.477
  H       89.531     127.592     599.597
  H       90.470     128.973     598.996
  H       89.554     127.939     597.852
  H       88.252     135.634     600.546
  H       87.061     136.526     599.631
  H       88.763     136.774     599.324

 3  4  5  6  7  8  9  10  11  12  23  26  30  31 0
 6-311+G(2d,p)
 ****
 33  35  36  37  38 0
 6-311+G(2d,p)
 ****
 1  2  13  14  15  16  17  18  19  20  21  22  24  25 0
 3-21G
 ****
 27  28  29  32  34  39  40  41  42  43  44  45  46  47  48  49 0
 3-21G
 ****


