%nproc=1
%NoSave
%Mem=1900MB
#P OB98/GEN NMR

erre ene a

0 1
  C     -143.040      68.268     -58.710
  O     -142.640      69.084     -57.626
  H     -142.326      67.448     -58.813
  H     -143.041      68.851     -59.633
  H     -144.034      67.852     -58.529
  P     -143.610      70.304     -57.242
  C     -145.808      70.394     -55.869
  O     -144.535      69.786     -56.032
  C     -146.172      70.494     -54.387
  O     -146.336      69.147     -53.851
  C     -145.115      71.206     -53.524
  O     -145.801      71.934     -52.497
  C     -144.376      70.048     -52.869
  O     -143.697      70.436     -51.678
  C     -145.535      69.075     -52.652
  N     -142.524      66.315     -49.713
  C     -142.818      67.665     -49.681
  N     -142.215      68.396     -48.718
  N     -143.631      68.249     -50.521
  C     -144.187      67.393     -51.412
  C     -143.976      66.039     -51.550
  C     -143.050      65.411     -50.630
  O     -142.736      64.223     -50.621
  N     -144.708      65.531     -52.597
  C     -145.359      66.574     -53.083
  N     -145.076      67.725     -52.400
  O     -144.612      70.360     -58.489
  O     -142.930      71.613     -57.011
  H     -143.146      69.680     -51.387
  H     -144.291      70.999     -59.154
  H     -141.879      65.919     -49.050
  H     -146.038      66.551     -53.927
  H     -146.166      69.361     -51.801
  H     -143.638      69.629     -53.564
  H     -141.616      68.007     -48.007
  H     -144.456      71.879     -54.079
  H     -142.453      69.380     -48.650
  H     -147.144      70.987     -54.298
  H     -146.561      69.786     -56.383
  H     -145.790      71.393     -56.315
  P     -146.336      73.403     -52.845
  C     -148.695      74.389     -53.336
  O     -147.828      73.267     -53.422
  O     -145.487      73.791     -54.150
  O     -146.152      74.401     -51.749
  H     -145.387      74.759     -54.202
  H     -149.645      74.139     -53.761
  H     -148.269      75.211     -53.873
  H     -148.824      74.662     -52.310

 6  7  8  9  10  11  12  13  14  15  26  29  33  34 0
 6-311+G(2d,p)
 ****
 36  38  39  40  41 0
 6-311+G(2d,p)
 ****
 1  2  3  4  5  16  17  18  19  20  21  22  23  24  25 0
 3-21G
 ****
 27  28  30  31  32  35  37  42  43  44  45  46  47 0
 3-21G
 ****
 48  49 0
 3-21G
 ****


