%nproc=1
%NoSave
%Mem=1900MB
#P OB98/GEN NMR

erre ene a

0 1
  C      -21.317     284.888     230.579
  O      -21.541     283.794     229.688
  P      -22.327     284.138     228.330
  C      -24.708     283.665     229.234
  O      -23.803     284.633     228.727
  C      -26.115     283.859     228.662
  O      -27.091     283.047     229.381
  C      -26.611     285.307     228.716
  O      -27.424     285.516     227.552
  C      -27.504     285.310     229.947
  O      -28.394     286.419     229.945
  C      -28.153     283.935     229.798
  N      -32.491     283.714     232.370
  C      -32.184     284.372     231.196
  N      -33.197     285.030     230.592
  N      -30.992     284.387     230.662
  C      -30.088     283.652     231.358
  C      -30.273     282.941     232.519
  C      -31.591     282.963     233.119
  O      -31.916     282.392     234.152
  N      -29.119     282.297     232.903
  C      -28.231     282.681     232.003
  N      -28.778     283.454     231.019
  O      -22.567     282.702     227.672
  O      -21.574     285.050     227.416
  H      -27.853     287.232     229.855
  H      -21.913     282.541     226.967
  H      -33.426     283.750     232.748
  H      -27.188     282.407     232.005
  H      -28.935     283.925     229.029
  H      -26.892     285.360     230.854
  H      -34.151     285.022     230.921
  H      -25.819     286.057     228.767
  H      -33.009     285.489     229.710
  H      -26.110     283.508     227.621
  H      -24.756     283.736     230.324
  H      -24.323     282.664     229.011
  P      -27.035     286.724     226.579
  C      -29.219     288.081     226.884
  O      -27.823     288.023     227.090
  O      -27.789     286.346     225.214
  O      -25.569     286.897     226.351
  H      -27.222     286.581     224.455
  H      -29.661     288.727     227.649
  H      -29.682     287.092     226.951
  H      -29.426     288.507     225.901
  H      -20.789     284.542     231.443
  H      -22.257     285.303     230.878
  H      -20.737     285.639     230.084

 3  4  5  6  7  8  9  10  11  12  23  26  30  31 0
 6-311+G(2d,p)
 ****
 33  35  36  37  38 0
 6-311+G(2d,p)
 ****
 1  2  13  14  15  16  17  18  19  20  21  22  24  25 0
 3-21G
 ****
 27  28  29  32  34  39  40  41  42  43  44  45  46  47  48  49 0
 3-21G
 ****


