%nproc=1
%NoSave
%Mem=1900MB
#P OB98/GEN NMR

erre ene a

0 1
  C     -141.180     -16.957    -103.925
  O     -139.868     -16.985    -103.402
  H     -141.689     -17.883    -103.639
  H     -141.152     -16.896    -105.015
  H     -141.741     -16.110    -103.520
  P     -138.943     -15.684    -103.561
  C     -139.421     -14.925    -101.145
  O     -139.495     -14.592    -102.525
  C     -138.217     -14.231    -100.509
  O     -138.294     -12.804    -100.718
  C     -138.125     -14.425     -98.997
  O     -137.660     -15.722     -98.683
  C     -137.183     -13.287     -98.629
  O     -135.819     -13.637     -98.911
  C     -137.664     -12.167     -99.583
  N     -138.575     -11.221     -98.935
  C     -138.098     -10.601     -97.783
  O     -136.982     -10.817     -97.311
  N     -138.972      -9.749     -97.160
  C     -140.273      -9.538     -97.519
  O     -141.082      -8.944     -96.814
  C     -140.696     -10.160     -98.784
  C     -139.846     -10.975     -99.415
  O     -138.751     -15.192    -104.957
  O     -137.552     -16.129    -102.901
  H     -136.919     -16.360    -103.608
  H     -135.640     -14.468     -98.427
  H     -138.653      -9.330     -96.299
  H     -141.701      -9.967     -99.136
  H     -140.147     -11.469    -100.332
  H     -136.805     -11.601     -99.973
  H     -137.237     -13.029     -97.571
  H     -139.102     -14.237     -98.534
  H     -137.309     -14.598    -101.002
  H     -139.304     -16.012    -101.056
  H     -140.351     -14.625    -100.653
  P     -137.915     -16.367     -97.240
  C     -140.266     -16.951     -98.080
  O     -139.499     -16.432     -97.002
  O     -137.143     -15.745     -96.125
  O     -137.515     -17.908     -97.423
  H     -136.867     -18.155     -96.732
  H     -141.302     -16.948     -97.814
  H     -139.954     -17.953     -98.290
  H     -140.119     -16.342     -98.948

 6  7  8  9  10  11  12  13  14  15  16  27  31  32  33  34  35 0
 6-311+G(2d,p)
 ****
 36  37 0
 6-311+G(2d,p)
 ****
 1  2  3  4  5  17  18  19  20  21  22  23  24  25 0
 3-21G
 ****
 26  28  29  30  38  39  40  41  42  43  44  45 0
 3-21G
 ****


