%nproc=1
%NoSave
%Mem=1900MB
#P OB98/GEN NMR

erre ene a

0 1
  C      -51.423     207.804     613.030
  O      -52.633     208.219     612.362
  P      -53.028     207.422     611.027
  C      -55.472     206.924     611.771
  O      -54.616     207.552     610.822
  C      -56.320     207.974     612.486
  O      -55.523     208.799     613.370
  C      -57.013     208.956     611.538
  O      -58.127     208.340     610.899
  C      -57.372     210.079     612.505
  O      -58.554     209.747     613.248
  C      -56.151     210.105     613.441
  N      -54.796     214.985     614.188
  C      -55.817     214.248     614.674
  N      -56.113     212.949     614.424
  C      -55.212     212.416     613.585
  C      -54.109     213.037     613.014
  C      -53.913     214.388     613.347
  N      -52.872     215.150     612.837
  N      -53.418     212.154     612.203
  C      -54.099     211.023     612.268
  N      -55.182     211.127     613.102
  O      -52.824     205.884     611.439
  O      -52.197     207.789     609.839
  H      -59.256     209.517     612.600
  H      -52.036     205.523     610.998
  H      -56.488     214.772     615.349
  H      -53.845     210.116     611.736
  H      -56.447     210.264     614.483
  H      -57.569     211.032     611.993
  H      -56.295     209.310     610.784
  H      -57.076     207.447     613.097
  H      -54.887     206.365     612.496
  H      -52.849     216.127     613.059
  H      -52.268     214.733     612.141
  H      -56.101     206.198     611.245
  P      -58.284     208.572     609.315
  C      -58.494     206.072     608.774
  O      -59.172     207.309     608.839
  O      -56.828     208.205     608.780
  O      -58.810     209.920     608.926
  H      -56.491     207.382     609.185
  H      -59.213     205.295     608.475
  H      -58.080     205.806     609.755
  H      -57.690     206.118     608.023
  H      -51.271     208.408     613.900
  H      -50.592     207.919     612.366
  H      -51.509     206.777     613.319

 3  4  5  6  7  8  9  10  11  12  22  25  29  30  31  32 0
 6-311+G(2d,p)
 ****
 33  36  37 0
 6-311+G(2d,p)
 ****
 1  2  13  14  15  16  17  18  19  20  21  23  24  26 0
 3-21G
 ****
 27  28  34  35  38  39  40  41  42  43  44  45  46  47  48 0
 3-21G
 ****


