%nproc=1
%NoSave
%Mem=1900MB
#P OB98/GEN NMR

erre ene a

0 1
  C      -53.203     102.551     -42.081
  O      -52.737     102.208     -40.775
  P      -52.649     100.665     -40.355
  C      -50.370      99.705     -41.088
  O      -51.118     100.298     -40.038
  C      -49.017      99.182     -40.576
  O      -48.097     100.294     -40.398
  C      -49.130      98.443     -39.236
  O      -48.503      97.160     -39.249
  C      -48.578      99.440     -38.232
  O      -48.097      98.826     -37.047
  C      -47.560     100.229     -39.064
  N      -47.305     101.559     -38.503
  C      -46.084     101.746     -37.869
  O      -45.267     100.841     -37.700
  N      -45.849     103.001     -37.373
  C      -46.732     104.040     -37.381
  O      -46.492     105.132     -36.882
  C      -48.035     103.764     -38.008
  C      -48.256     102.557     -38.530
  O      -53.354      99.706     -41.253
  O      -53.310     100.657     -38.890
  H      -47.925      99.528     -36.381
  H      -53.842      99.841     -38.806
  H      -44.958     103.157     -36.926
  H      -48.768     104.559     -38.012
  H      -49.209     102.323     -38.986
  H      -46.599      99.705     -39.106
  H      -49.390     100.118     -37.937
  H      -50.175      98.223     -38.988
  H      -48.612      98.519     -41.346
  H      -50.189     100.445     -41.869
  H      -50.962      98.910     -41.552
  P      -49.227      95.803     -39.689
  C      -49.253      96.199     -42.249
  O      -48.750      95.436     -41.172
  O      -50.702      95.752     -39.472
  O      -48.498      94.698     -38.784
  H      -49.160      94.051     -38.473
  H      -49.143      95.620     -43.170
  H      -48.672      97.123     -42.345
  H      -50.309      96.443     -42.108
  H      -53.198     103.615     -42.193
  H      -54.199     102.183     -42.212
  H      -52.561     102.112     -42.816

 3  4  5  6  7  8  9  10  11  12  13  23  28  29  30  31  32 0
 6-311+G(2d,p)
 ****
 33  34 0
 6-311+G(2d,p)
 ****
 1  2  14  15  16  17  18  19  20  21  22  24  25  26  27 0
 3-21G
 ****
 35  36  37  38  39  40  41  42  43  44  45 0
 3-21G
 ****


