%nproc=1
%NoSave
%Mem=1900MB
#P OB98/GEN NMR

erre ene a

0 1
  C     -302.285     484.924     957.632
  O     -302.383     483.500     957.532
  P     -301.142     482.597     957.048
  C     -301.523     482.221     954.528
  O     -300.767     482.931     955.520
  C     -301.322     482.778     953.105
  O     -299.949     482.609     952.669
  C     -302.213     482.121     952.037
  O     -302.464     483.141     951.065
  C     -301.299     481.050     951.477
  O     -301.694     480.590     950.187
  C     -299.970     481.799     951.475
  N     -295.848     480.373     948.790
  C     -296.680     481.417     948.659
  N     -297.733     481.745     949.427
  C     -297.866     480.897     950.461
  C     -297.077     479.785     950.733
  C     -296.034     479.519     949.816
  N     -295.212     478.421     949.922
  N     -297.537     479.125     951.852
  C     -298.587     479.824     952.246
  N     -298.807     480.904     951.442
  O     -301.307     481.138     957.332
  O     -299.896     483.174     957.872
  H     -301.754     481.351     949.591
  H     -299.376     482.428     958.237
  H     -296.489     482.077     947.811
  H     -299.204     479.572     953.089
  H     -299.875     482.480     950.619
  H     -301.285     480.189     952.149
  H     -303.146     481.725     952.434
  H     -301.496     483.854     953.154
  H     -302.577     482.277     954.802
  H     -294.540     478.269     949.171
  H     -295.408     477.716     950.618
  H     -301.232     481.169     954.555
  P     -303.611     484.244     951.267
  C     -305.291     484.151     949.329
  O     -304.940     483.640     950.601
  O     -303.263     485.610     950.805
  O     -303.937     484.206     952.839
  H     -304.397     485.037     953.085
  H     -305.737     485.147     949.448
  H     -306.024     483.489     948.867
  H     -304.406     484.223     948.678
  H     -303.219     485.323     957.970
  H     -302.049     485.334     956.672
  H     -301.514     485.180     958.329

 3  4  5  6  7  8  9  10  11  12  22  25  29  30  31  32 0
 6-311+G(2d,p)
 ****
 33  36  37 0
 6-311+G(2d,p)
 ****
 1  2  13  14  15  16  17  18  19  20  21  23  24  26 0
 3-21G
 ****
 27  28  34  35  38  39  40  41  42  43  44  45  46  47  48 0
 3-21G
 ****


