%nproc=1
%NoSave
%Mem=1900MB
#P OB98/GEN NMR

erre ene a

0 1
  C     -246.630      12.955     -73.362
  O     -247.265      11.736     -73.026
  H     -245.602      12.930     -72.992
  H     -247.153      13.795     -72.895
  H     -246.613      13.083     -74.449
  P     -248.812      11.605     -73.434
  C     -249.429      11.977     -70.945
  O     -249.647      12.366     -72.293
  C     -250.481      12.603     -70.031
  O     -250.371      12.077     -68.691
  C     -250.392      14.120     -69.919
  O     -251.056      14.750     -71.001
  C     -251.084      14.361     -68.586
  O     -252.521      14.324     -68.734
  C     -250.595      13.167     -67.752
  N     -248.814      14.638     -63.263
  C     -250.110      14.578     -63.729
  N     -251.082      14.997     -62.887
  N     -250.436      14.155     -64.922
  C     -249.363      13.821     -65.679
  C     -248.031      13.841     -65.332
  C     -247.691      14.261     -63.988
  O     -246.571      14.257     -63.489
  N     -247.240      13.412     -66.371
  C     -248.090      13.167     -67.350
  N     -249.391      13.408     -66.981
  O     -249.139      10.059     -73.161
  O     -249.138      11.985     -74.840
  H     -252.934      14.519     -67.875
  H     -249.744       9.741     -73.857
  H     -248.627      14.944     -62.324
  H     -247.820      12.810     -68.333
  H     -251.357      12.826     -67.041
  H     -250.843      15.342     -68.176
  H     -250.879      15.590     -62.095
  H     -249.349      14.450     -69.849
  H     -252.023      15.021     -63.258
  H     -251.467      12.303     -70.412
  H     -248.435      12.310     -70.636
  H     -249.480      10.885     -70.872
  P     -250.586      16.221     -71.428
  C     -252.666      17.483     -70.520
  O     -251.265      17.270     -70.419
  O     -251.374      16.462     -72.805
  O     -249.113      16.373     -71.619
  H     -250.753      16.383     -73.555
  H     -252.971      18.202     -69.789
  H     -253.180      16.560     -70.349
  H     -252.902      17.846     -71.498

 6  7  8  9  10  11  12  13  14  15  26  29  33  34 0
 6-311+G(2d,p)
 ****
 36  38  39  40  41 0
 6-311+G(2d,p)
 ****
 1  2  3  4  5  16  17  18  19  20  21  22  23  24  25 0
 3-21G
 ****
 27  28  30  31  32  35  37  42  43  44  45  46  47 0
 3-21G
 ****
 48  49 0
 3-21G
 ****


