%nproc=1
%NoSave
%Mem=1900MB
#P OB98/GEN NMR

erre ene a

0 1
  C      105.677    -232.735    -206.117
  O      105.540    -232.575    -204.723
  H      104.748    -232.410    -206.596
  H      105.847    -233.784    -206.372
  H      106.498    -232.119    -206.493
  P      106.686    -233.154    -203.756
  C      106.348    -231.256    -202.063
  O      106.266    -232.661    -202.278
  C      105.075    -230.545    -202.522
  O      103.956    -230.968    -201.700
  C      105.156    -229.015    -202.438
  O      104.659    -228.445    -203.651
  C      104.237    -228.668    -201.275
  O      103.740    -227.336    -201.361
  C      103.195    -229.787    -201.381
  N      102.418    -229.959    -200.159
  C      101.510    -228.943    -199.849
  O      101.421    -227.947    -200.570
  N      100.752    -229.055    -198.712
  C      100.922    -230.067    -197.921
  N      100.148    -230.114    -196.804
  C      101.903    -231.141    -198.185
  C      102.604    -231.028    -199.312
  O      108.079    -232.808    -204.161
  O      106.407    -234.729    -203.702
  H      103.032    -227.226    -200.688
  H      107.225    -235.197    -203.401
  H      102.017    -231.959    -197.490
  H      103.341    -231.774    -199.592
  H      102.499    -229.594    -202.210
  H      104.791    -228.764    -200.332
  H      106.164    -228.645    -202.271
  H      104.846    -230.875    -203.543
  H       99.487    -229.360    -196.661
  H      107.218    -230.869    -202.604
  H      100.199    -230.852    -196.116
  H      106.485    -231.083    -200.989
  P      105.720    -228.297    -204.848
  C      103.898    -228.926    -206.581
  O      104.901    -227.998    -206.199
  O      106.256    -229.792    -205.045
  O      106.831    -227.342    -204.551
  H      107.124    -229.898    -204.614
  H      103.440    -228.601    -207.492
  H      103.157    -228.988    -205.811
  H      104.341    -229.889    -206.728

 6  7  8  9  10  11  12  13  14  15  16  26  30  31  32  33  35 0
 6-311+G(2d,p)
 ****
 37  38 0
 6-311+G(2d,p)
 ****
 1  2  3  4  5  17  18  19  20  21  22  23  24  25 0
 3-21G
 ****
 27  28  29  34  36  39  40  41  42  43  44  45  46 0
 3-21G
 ****


