%nproc=1
%NoSave
%Mem=1900MB
#P OB98/GEN NMR

erre ene a

0 1
  C      401.373     967.069     688.416
  O      402.620     966.431     688.591
  H      400.635     966.659     689.110
  H      401.491     968.131     688.614
  H      401.028     966.937     687.384
  P      402.631     964.830     688.444
  C      403.851     964.925     686.158
  O      402.695     964.520     686.867
  C      404.156     963.925     685.043
  O      404.427     962.626     685.603
  C      403.018     963.705     684.061
  O      402.930     964.752     683.097
  C      403.457     962.395     683.406
  O      404.454     962.655     682.403
  C      404.089     961.642     684.595
  N      401.820     957.065     683.976
  C      402.647     957.783     683.175
  N      403.208     958.981     683.407
  C      402.847     959.471     684.606
  C      402.001     958.857     685.525
  C      401.475     957.598     685.174
  N      400.619     956.896     685.989
  N      401.864     959.647     686.659
  C      402.611     960.706     686.424
  N      403.216     960.650     685.190
  O      401.136     964.411     688.844
  O      403.643     964.119     689.278
  H      405.237     962.992     682.874
  H      401.168     963.557     689.321
  H      402.913     957.310     682.238
  H      402.740     961.528     687.110
  H      405.019     961.141     684.297
  H      402.636     961.860     682.929
  H      402.062     963.549     684.570
  H      405.067     964.263     684.521
  H      404.701     964.967     686.841
  H      400.437     955.924     685.773
  H      400.370     957.300     686.885
  H      403.684     965.923     685.734
  P      401.479     965.093     682.507
  C      401.109     966.427     684.701
  O      400.575     965.487     683.777
  O      400.909     963.671     682.082
  O      401.476     966.058     681.366
  H      400.245     963.762     681.374
  H      400.404     966.593     685.489
  H      401.304     967.351     684.197
  H      402.020     966.045     685.112

 6  7  8  9  10  11  12  13  14  15  25  28  32  33  34  35 0
 6-311+G(2d,p)
 ****
 36  39  40 0
 6-311+G(2d,p)
 ****
 1  2  3  4  5  16  17  18  19  20  21  22  23  24 0
 3-21G
 ****
 26  27  29  30  31  37  38  41  42  43  44  45  46  47  48 0
 3-21G
 ****


