%nproc=1
%NoSave
%Mem=1900MB
#P OB98/GEN NMR

erre ene a

0 1
  C     -887.392    -663.294    -891.290
  O     -886.987    -663.107    -892.630
  P     -887.675    -661.971    -893.540
  C     -890.028    -661.310    -894.310
  O     -889.239    -662.277    -893.630
  C     -891.165    -661.991    -895.060
  O     -892.105    -662.611    -894.150
  C     -892.007    -661.045    -895.900
  O     -891.341    -660.631    -897.080
  C     -893.228    -661.896    -896.200
  O     -892.981    -662.828    -897.260
  C     -893.385    -662.664    -894.860
  N     -894.437    -662.153    -894.010
  C     -895.738    -662.617    -894.260
  O     -895.937    -663.391    -895.210
  N     -896.751    -662.190    -893.430
  C     -896.557    -661.303    -892.510
  N     -897.582    -661.013    -891.710
  C     -895.238    -660.677    -892.330
  C     -894.243    -661.122    -893.080
  O     -887.008    -661.716    -894.850
  O     -887.613    -660.660    -892.580
  H     -887.262    -659.912    -893.130
  H     -893.683    -663.526    -897.200
  H     -895.147    -659.885    -891.610
  H     -893.231    -660.744    -892.980
  H     -893.575    -663.761    -895.050
  H     -894.091    -661.317    -896.450
  H     -892.312    -660.190    -895.290
  H     -890.740    -662.800    -895.720
  H     -898.468    -661.486    -891.870
  H     -889.401    -660.785    -895.000
  H     -897.465    -660.554    -890.810
  H     -890.445    -660.596    -893.570
  P     -892.135    -659.548    -898.010
  C     -894.388    -659.639    -899.320
  O     -893.326    -660.371    -898.730
  O     -891.106    -659.300    -899.230
  O     -892.524    -658.279    -897.360
  H     -891.157    -658.377    -899.500
  H     -894.925    -660.300    -900.000
  H     -893.997    -658.779    -899.860
  H     -895.107    -659.304    -898.530
  H     -886.824    -664.089    -890.853
  H     -888.432    -663.543    -891.263
  H     -887.227    -662.392    -890.738

 3  4  5  6  7  8  9  10  11  12  13  24  27  28  29  30  32 0
 6-311+G(2d,p)
 ****
 34  35 0
 6-311+G(2d,p)
 ****
 1  2  14  15  16  17  18  19  20  21  22  23  25  26 0
 3-21G
 ****
 31  33  36  37  38  39  40  41  42  43  44  45  46 0
 3-21G
 ****


