%nproc=1
%NoSave
%Mem=1900MB
#P OB98/GEN NMR

erre ene a

0 1
  C     -197.011     536.070    -520.835
  O     -197.051     535.143    -519.771
  P     -197.781     535.490    -518.391
  C     -200.038     534.518    -519.180
  O     -199.347     535.676    -518.728
  C     -201.083     534.081    -518.131
  O     -202.038     535.171    -517.944
  C     -201.872     532.827    -518.565
  O     -201.881     531.773    -517.599
  C     -203.241     533.393    -518.921
  O     -204.285     532.436    -518.902
  C     -203.346     534.571    -517.941
  N     -204.396     535.516    -518.318
  C     -204.657     536.563    -517.444
  O     -204.059     536.751    -516.382
  N     -205.694     537.396    -517.780
  C     -206.552     537.215    -518.820
  O     -207.526     537.939    -519.015
  C     -206.255     536.061    -519.698
  C     -205.199     535.294    -519.423
  O     -197.175     536.614    -517.611
  O     -197.778     534.084    -517.613
  H     -204.357     532.090    -517.998
  H     -198.240     533.358    -518.076
  H     -205.894     538.158    -517.149
  H     -206.929     535.889    -520.523
  H     -204.951     534.431    -520.057
  H     -203.551     534.221    -516.929
  H     -203.177     533.781    -519.948
  H     -201.426     532.368    -519.453
  H     -200.550     533.909    -517.190
  H     -199.314     533.707    -519.326
  H     -200.511     534.717    -520.150
  P     -202.186     530.229    -517.913
  C     -199.732     529.368    -517.790
  O     -200.880     529.591    -518.594
  O     -203.467     529.974    -518.651
  O     -202.221     529.545    -516.470
  H     -202.819     528.768    -516.488
  H     -198.841     529.426    -518.432
  H     -199.780     528.362    -517.360
  H     -199.643     530.109    -516.992
  H     -196.479     535.644    -521.660
  H     -196.515     536.962    -520.513
  H     -198.009     536.307    -521.139

 3  4  5  6  7  8  9  10  11  12  13  23  28  29  30  31  32 0
 6-311+G(2d,p)
 ****
 33  34 0
 6-311+G(2d,p)
 ****
 1  2  14  15  16  17  18  19  20  21  22  24  25  26  27 0
 3-21G
 ****
 35  36  37  38  39  40  41  42  43  44  45 0
 3-21G
 ****


