%nproc=1
%NoSave
%Mem=1900MB
#P OB98/GEN NMR

erre ene a

0 1
  C     -524.251     239.633    -236.730
  O     -524.553     238.442    -237.429
  P     -523.686     237.106    -237.231
  C     -523.175     236.806    -239.733
  O     -523.843     236.278    -238.595
  C     -523.016     235.747    -240.822
  O     -522.155     234.676    -240.337
  C     -524.328     235.111    -241.302
  O     -524.154     234.823    -242.691
  C     -524.372     233.826    -240.496
  O     -525.254     232.859    -241.061
  C     -522.890     233.439    -240.478
  N     -522.582     232.491    -239.411
  C     -521.926     231.315    -239.782
  O     -521.699     231.084    -240.973
  N     -521.588     230.408    -238.813
  C     -521.966     230.612    -237.589
  N     -521.605     229.684    -236.664
  C     -522.772     231.776    -237.174
  C     -523.028     232.673    -238.123
  O     -523.985     236.340    -235.988
  O     -522.174     237.622    -237.309
  H     -525.414     232.155    -240.395
  H     -521.916     238.060    -236.459
  H     -523.115     231.874    -236.153
  H     -523.613     233.563    -237.914
  H     -522.592     232.990    -241.439
  H     -524.723     234.037    -239.481
  H     -525.199     235.740    -241.140
  H     -522.493     236.213    -241.676
  H     -521.037     228.904    -236.989
  H     -522.185     237.146    -239.417
  H     -521.774     229.785    -235.678
  H     -523.720     237.677    -240.117
  P     -524.963     235.635    -243.815
  C     -527.111     234.245    -243.709
  O     -525.985     234.605    -244.493
  O     -524.108     236.394    -244.781
  O     -525.921     236.612    -242.986
  H     -526.263     237.311    -243.574
  H     -527.864     233.781    -244.352
  H     -527.554     235.124    -243.228
  H     -526.804     233.526    -242.943
  H     -524.948     240.396    -237.008
  H     -523.259     239.949    -236.976
  H     -524.317     239.455    -235.677

 3  4  5  6  7  8  9  10  11  12  13  23  27  28  29  30  32 0
 6-311+G(2d,p)
 ****
 34  35 0
 6-311+G(2d,p)
 ****
 1  2  14  15  16  17  18  19  20  21  22  24  25  26 0
 3-21G
 ****
 31  33  36  37  38  39  40  41  42  43  44  45  46 0
 3-21G
 ****


