%nproc=1
%NoSave
%Mem=1900MB
#P OB98/GEN NMR

erre ene a

0 1
  C     -906.519    1137.700     697.725
  O     -907.833    1137.173     697.663
  P     -908.137    1136.120     696.490
  C     -910.347    1137.428     696.087
  O     -909.716    1136.178     696.212
  C     -911.785    1137.264     695.622
  O     -911.809    1136.699     694.307
  C     -912.635    1136.339     696.494
  O     -913.007    1136.959     697.705
  C     -913.779    1136.035     695.539
  O     -914.715    1137.120     695.532
  C     -913.042    1135.937     694.167
  N     -914.974    1131.508     692.479
  C     -915.555    1132.688     692.779
  N     -914.979    1133.830     693.253
  C     -913.669    1133.654     693.375
  C     -912.918    1132.497     693.113
  C     -913.630    1131.400     692.661
  N     -913.031    1130.203     692.323
  N     -911.581    1132.733     693.395
  C     -911.515    1133.957     693.803
  N     -912.729    1134.570     693.804
  O     -907.925    1134.701     697.208
  O     -907.273    1136.257     695.259
  H     -914.879    1137.387     696.466
  H     -907.560    1134.039     696.582
  H     -916.654    1132.727     692.633
  H     -910.596    1134.466     694.107
  H     -913.632    1136.388     693.371
  H     -914.335    1135.112     695.808
  H     -912.072    1135.409     696.714
  H     -912.258    1138.269     695.580
  H     -909.802    1138.062     695.364
  H     -913.643    1129.405     692.127
  H     -912.058    1130.075     692.569
  H     -910.297    1137.956     697.056
  P     -912.363    1136.402     699.055
  C     -914.838    1136.112     699.686
  O     -913.547    1136.529     700.120
  O     -911.371    1137.597     699.473
  O     -911.733    1135.045     698.926
  H     -911.842    1138.460     699.436
  H     -915.544    1136.198     700.525
  H     -914.814    1135.064     699.355
  H     -915.177    1136.767     698.883
  H     -906.448    1138.384     698.544
  H     -906.297    1138.212     696.812
  H     -905.821    1136.901     697.865

 3  4  5  6  7  8  9  10  11  12  22  25  29  30  31  32 0
 6-311+G(2d,p)
 ****
 33  36  37 0
 6-311+G(2d,p)
 ****
 1  2  13  14  15  16  17  18  19  20  21  23  24  26 0
 3-21G
 ****
 27  28  34  35  38  39  40  41  42  43  44  45  46  47  48 0
 3-21G
 ****


