%nproc=1
%NoSave
%Mem=1900MB
#P OB98/GEN NMR

erre ene a

0 1
  C     -487.775     531.044     144.143
  O     -487.167     531.355     145.389
  P     -486.087     530.366     146.061
  C     -487.704     528.606     147.035
  O     -486.852     529.701     147.299
  C     -487.820     527.722     148.272
  O     -486.553     527.130     148.585
  C     -488.257     528.475     149.544
  O     -489.648     528.761     149.516
  C     -487.807     527.499     150.622
  O     -488.755     526.428     150.757
  C     -486.484     526.953     150.033
  N     -485.300     527.593     150.578
  C     -484.715     526.953     151.677
  O     -485.174     525.917     152.139
  N     -483.574     527.522     152.226
  C     -483.089     528.613     151.732
  N     -481.926     529.080     152.265
  C     -483.711     529.339     150.601
  C     -484.803     528.781     150.082
  O     -484.783     530.987     146.381
  O     -485.981     529.140     145.022
  H     -489.517     526.786     151.252
  H     -485.307     529.283     144.314
  H     -483.274     530.252     150.234
  H     -485.299     529.231     149.242
  H     -486.421     525.868     150.186
  H     -487.663     527.961     151.599
  H     -487.693     529.406     149.629
  H     -488.541     526.909     148.046
  H     -481.450     528.460     152.913
  H     -487.268     528.002     146.224
  H     -481.333     529.733     151.763
  H     -488.689     528.971     146.713
  P     -490.100     530.295     149.701
  C     -490.829     529.865     152.169
  O     -491.212     530.275     150.872
  O     -490.912     530.596     148.369
  O     -488.966     531.235     149.921
  H     -490.361     531.114     147.741
  H     -491.619     530.144     152.865
  H     -489.909     530.383     152.466
  H     -490.679     528.790     152.194
  H     -488.457     531.824     143.874
  H     -488.306     530.119     144.226
  H     -487.020     530.955     143.390

 3  4  5  6  7  8  9  10  11  12  13  23  27  28  29  30  32 0
 6-311+G(2d,p)
 ****
 34  35 0
 6-311+G(2d,p)
 ****
 1  2  14  15  16  17  18  19  20  21  22  24  25  26 0
 3-21G
 ****
 31  33  36  37  38  39  40  41  42  43  44  45  46 0
 3-21G
 ****


