%nproc=1
%NoSave
%Mem=1900MB
#P OB98/GEN NMR

erre ene a

0 1
  C       48.957     172.660     -83.039
  O       49.651     172.729     -84.272
  P       50.623     173.956     -84.596
  C       52.491     172.255     -85.029
  O       52.131     173.455     -84.356
  C       53.755     172.446     -85.865
  O       54.763     173.121     -85.059
  C       54.385     171.141     -86.383
  O       54.958     171.438     -87.660
  C       55.495     170.883     -85.375
  O       56.507     170.018     -85.874
  C       55.957     172.313     -85.106
  N       60.587     172.741     -82.973
  C       60.202     172.578     -84.258
  N       58.948     172.446     -84.745
  C       58.046     172.499     -83.749
  C       58.292     172.632     -82.392
  C       59.640     172.772     -82.010
  N       60.050     172.976     -80.708
  N       57.105     172.582     -81.680
  C       56.167     172.426     -82.594
  N       56.683     172.436     -83.857
  O       50.276     175.240     -83.917
  O       50.540     174.104     -86.188
  H       57.139     169.834     -85.154
  H       50.007     174.891     -86.421
  H       61.003     172.557     -84.996
  H       55.111     172.303     -82.395
  H       56.595     172.698     -85.909
  H       55.073     170.425     -84.473
  H       53.684     170.307     -86.457
  H       53.516     173.112     -86.704
  H       51.662     171.976     -85.686
  H       61.023     173.199     -80.565
  H       59.361     173.267     -80.015
  H       52.637     171.451     -84.299
  P       55.325     170.242     -88.667
  C       52.997     170.353     -89.727
  O       53.945     169.538     -89.059
  O       56.408     169.326     -88.202
  O       55.736     171.009     -90.018
  H       56.239     170.403     -90.597
  H       52.466     170.969     -88.995
  H       52.276     169.713     -90.245
  H       53.483     171.003     -90.460
  H       48.363     171.771     -83.014
  H       48.323     173.516     -82.938
  H       49.661     172.641     -82.234

 3  4  5  6  7  8  9  10  11  12  22  25  29  30  31  32 0
 6-311+G(2d,p)
 ****
 33  36  37 0
 6-311+G(2d,p)
 ****
 1  2  13  14  15  16  17  18  19  20  21  23  24  26 0
 3-21G
 ****
 27  28  34  35  38  39  40  41  42  43  44  45  46  47  48 0
 3-21G
 ****


