%nproc=1
%NoSave
%Mem=1900MB
#P OB98/GEN NMR

erre ene a

0 1
  C       81.489      47.746    -143.469
  O       82.556      48.479    -144.086
  P       82.392      49.274    -145.475
  C       82.586      47.241    -147.050
  O       81.758      48.293    -146.578
  C       82.142      46.739    -148.431
  O       81.087      45.734    -148.287
  C       81.596      47.839    -149.365
  O       82.059      47.527    -150.682
  C       80.088      47.644    -149.240
  O       79.351      48.233    -150.293
  C       80.033      46.110    -149.199
  N       78.754      45.542    -148.774
  C       77.809      45.249    -149.765
  O       78.015      45.513    -150.950
  N       76.616      44.676    -149.387
  C       76.384      44.421    -148.136
  N       75.189      43.839    -147.832
  C       77.342      44.728    -147.057
  C       78.493      45.278    -147.444
  O       83.649      49.945    -145.933
  O       81.238      50.357    -145.214
  H       81.446      51.174    -145.709
  H       79.591      47.778    -151.121
  H       77.112      44.494    -146.029
  H       79.263      45.510    -146.715
  H       80.300      45.708    -150.184
  H       79.756      48.092    -148.299
  H       81.937      48.846    -149.100
  H       82.994      46.231    -148.901
  H       74.560      43.635    -148.604
  H       82.530      46.407    -146.341
  H       74.908      43.592    -146.895
  H       83.627      47.591    -147.089
  P       83.529      47.985    -151.137
  C       82.598      50.135    -152.288
  O       83.498      49.575    -151.350
  O       83.585      47.457    -152.653
  O       84.673      47.425    -150.353
  H       84.516      47.308    -152.908
  H       82.120      51.012    -151.840
  H       81.821      49.428    -152.593
  H       83.161      50.453    -153.174
  H       81.839      47.306    -142.559
  H       81.155      46.976    -144.133
  H       80.677      48.410    -143.255

 3  4  5  6  7  8  9  10  11  12  13  24  27  28  29  30  32 0
 6-311+G(2d,p)
 ****
 34  35 0
 6-311+G(2d,p)
 ****
 1  2  14  15  16  17  18  19  20  21  22  23  25  26 0
 3-21G
 ****
 31  33  36  37  38  39  40  41  42  43  44  45  46 0
 3-21G
 ****


