%nproc=1
%NoSave
%Mem=1900MB
#P OB98/GEN NMR

erre ene a

0 1
  C     -193.155      66.153    -181.954
  O     -191.882      65.765    -182.488
  P     -191.572      65.685    -184.063
  C     -189.149      66.518    -183.776
  O     -189.993      65.495    -184.288
  C     -187.719      66.397    -184.315
  O     -187.027      65.288    -183.665
  C     -187.627      66.167    -185.835
  O     -186.507      66.922    -186.302
  C     -187.362      64.666    -185.911
  O     -186.830      64.245    -187.153
  C     -186.413      64.511    -184.718
  N     -186.177      63.140    -184.278
  C     -185.237      62.380    -184.995
  O     -184.671      62.830    -185.993
  N     -184.973      61.100    -184.568
  C     -185.586      60.614    -183.535
  N     -185.269      59.341    -183.162
  C     -186.595      61.370    -182.768
  C     -186.834      62.610    -183.190
  O     -192.152      66.821    -184.845
  O     -192.198      64.292    -184.552
  H     -192.558      64.399    -185.453
  H     -185.974      64.696    -187.282
  H     -187.077      60.927    -181.910
  H     -187.545      63.243    -182.660
  H     -185.457      64.992    -184.953
  H     -188.305      64.138    -185.754
  H     -188.519      66.489    -186.383
  H     -187.176      67.311    -184.039
  H     -184.562      58.861    -183.709
  H     -189.124      66.435    -182.685
  H     -185.681      58.874    -182.369
  H     -189.574      67.498    -184.034
  P     -186.579      67.661    -187.720
  C     -185.394      69.825    -186.869
  O     -185.387      68.736    -187.772
  O     -187.862      68.607    -187.535
  O     -186.755      66.784    -188.917
  H     -188.253      68.797    -188.410
  H     -184.391      69.951    -186.462
  H     -186.093      69.675    -186.041
  H     -185.678      70.737    -187.410
  H     -193.115      66.130    -180.885
  H     -193.908      65.475    -182.298
  H     -193.392      67.144    -182.281

 3  4  5  6  7  8  9  10  11  12  13  24  27  28  29  30  32 0
 6-311+G(2d,p)
 ****
 34  35 0
 6-311+G(2d,p)
 ****
 1  2  14  15  16  17  18  19  20  21  22  23  25  26 0
 3-21G
 ****
 31  33  36  37  38  39  40  41  42  43  44  45  46 0
 3-21G
 ****


