%nproc=1
%NoSave
%Mem=1900MB
#P OB98/GEN NMR

erre ene a

0 1
  C     1152.063    -112.762     300.830
  O     1152.318    -112.038     299.644
  H     1152.409    -113.793     300.689
  H     1150.993    -112.771     301.035
  H     1152.598    -112.324     301.680
  P     1152.083    -110.452     299.707
  C     1150.696    -110.558     297.512
  O     1151.792    -109.967     298.197
  C     1150.864    -110.379     295.998
  O     1150.934    -108.971     295.665
  C     1152.131    -111.013     295.423
  O     1151.957    -112.398     295.182
  C     1152.263    -110.240     294.128
  O     1151.333    -110.740     293.171
  C     1151.883    -108.813     294.559
  N     1156.052    -106.348     293.091
  C     1155.158    -107.105     292.360
  N     1155.427    -107.232     291.033
  N     1154.117    -107.717     292.854
  C     1153.975    -107.492     294.188
  C     1154.789    -106.766     295.030
  C     1155.945    -106.118     294.462
  O     1156.753    -105.414     295.043
  N     1154.319    -106.775     296.324
  C     1153.246    -107.532     296.273
  N     1152.992    -107.986     294.997
  O     1153.550    -109.865     300.009
  O     1151.094    -109.995     300.736
  H     1151.681    -111.608     292.862
  H     1153.459    -109.079     300.593
  H     1156.863    -105.934     292.655
  H     1152.609    -107.773     297.110
  H     1151.353    -108.257     293.777
  H     1153.260    -110.322     293.686
  H     1156.240    -106.845     290.592
  H     1153.008    -110.815     296.066
  H     1154.761    -107.756     290.460
  H     1149.967    -110.791     295.519
  H     1149.765    -110.076     297.832
  H     1150.658    -111.623     297.753
  P     1152.939    -113.424     295.946
  C     1153.106    -115.209     294.054
  O     1152.607    -114.868     295.359
  O     1152.327    -113.463     297.430
  O     1154.385    -113.025     295.949
  H     1153.007    -113.749     298.068
  H     1152.801    -116.204     293.804
  H     1154.175    -115.153     294.055
  H     1152.714    -114.524     293.332

 6  7  8  9  10  11  12  13  14  15  26  29  33  34 0
 6-311+G(2d,p)
 ****
 36  38  39  40  41 0
 6-311+G(2d,p)
 ****
 1  2  3  4  5  16  17  18  19  20  21  22  23  24  25 0
 3-21G
 ****
 27  28  30  31  32  35  37  42  43  44  45  46  47 0
 3-21G
 ****
 48  49 0
 3-21G
 ****


