%nproc=1
%NoSave
%Mem=1900MB
#P OB98/GEN NMR

erre ene a

0 1
  C     -787.249     507.022     196.517
  O     -786.011     506.813     195.865
  H     -787.210     507.974     197.054
  H     -787.438     506.223     197.237
  H     -788.058     507.063     195.786
  P     -785.823     505.420     195.100
  C     -783.677     504.779     196.423
  O     -785.022     504.449     196.086
  C     -783.156     503.807     197.480
  O     -783.919     503.958     198.697
  C     -783.292     502.341     197.094
  O     -782.284     501.909     196.197
  C     -783.184     501.669     198.452
  O     -781.818     501.470     198.835
  C     -783.889     502.679     199.378
  N     -785.222     502.230     199.763
  C     -785.268     501.125     200.608
  O     -784.261     500.558     201.031
  N     -786.511     500.673     200.940
  C     -787.692     501.179     200.473
  O     -788.779     500.691     200.762
  C     -787.586     502.330     199.562
  C     -786.370     502.796     199.251
  O     -784.750     505.772     193.961
  O     -787.074     504.836     194.527
  H     -785.191     505.811     193.094
  H     -781.440     500.848     198.180
  H     -786.566     499.885     201.563
  H     -788.507     502.748     199.171
  H     -786.268     503.638     198.573
  H     -783.300     502.834     200.293
  H     -783.669     500.694     198.450
  H     -784.295     502.144     196.681
  H     -782.109     504.052     197.694
  H     -783.634     505.796     196.824
  H     -783.070     504.731     195.513
  P     -782.442     500.458     195.523
  C     -780.119     499.660     196.473
  O     -781.525     499.474     196.400
  O     -781.632     500.670     194.165
  O     -783.873     500.041     195.364
  H     -780.953     501.355     194.253
  H     -779.692     498.907     197.102
  H     -779.908     500.627     196.880
  H     -779.698     499.586     195.492

 6  7  8  9  10  11  12  13  14  15  16  27  31  32  33  34  35 0
 6-311+G(2d,p)
 ****
 36  37 0
 6-311+G(2d,p)
 ****
 1  2  3  4  5  17  18  19  20  21  22  23  24  25 0
 3-21G
 ****
 26  28  29  30  38  39  40  41  42  43  44  45 0
 3-21G
 ****


