%nproc=1
%NoSave
%Mem=1900MB
#P OB98/GEN NMR

erre ene a

0 1
  C      347.230     383.139      88.777
  O      345.827     383.077      88.630
  H      347.485     384.020      89.372
  H      347.697     383.235      87.793
  H      347.610     382.248      89.284
  P      345.210     381.713      88.062
  C      343.952     382.680      86.014
  O      343.847     382.091      87.301
  C      342.626     383.326      85.615
  O      341.587     382.313      85.642
  C      342.186     384.466      86.542
  O      341.584     385.497      85.753
  C      341.138     383.820      87.426
  O      340.208     384.763      87.957
  C      340.518     382.808      86.468
  N      336.614     381.635      89.432
  C      336.925     382.819      88.794
  N      336.074     383.850      88.978
  N      337.983     382.978      88.040
  C      338.723     381.853      87.916
  C      338.525     380.623      88.499
  C      337.368     380.469      89.354
  O      337.050     379.452      89.962
  N      339.520     379.743      88.155
  C      340.318     380.441      87.366
  N      339.873     381.724      87.187
  O      344.708     380.961      89.382
  O      346.154     380.861      87.278
  H      339.719     384.318      88.682
  H      345.217     380.140      89.509
  H      335.796     381.569      90.012
  H      341.228     380.068      86.911
  H      339.758     383.260      85.815
  H      341.623     383.313      88.268
  H      335.219     383.784      89.507
  H      343.010     384.887      87.120
  H      336.265     384.722      88.493
  H      342.704     383.671      84.577
  H      344.211     381.904      85.288
  H      344.745     383.436      86.025
  P      342.544     386.686      85.254
  C      341.086     388.629      86.148
  O      341.641     387.992      85.008
  O      342.954     386.225      83.776
  O      343.747     386.892      86.112
  H      343.883     385.939      83.763
  H      340.513     389.478      85.839
  H      341.874     388.948      86.797
  H      340.452     387.941      86.668

 6  7  8  9  10  11  12  13  14  15  26  29  33  34 0
 6-311+G(2d,p)
 ****
 36  38  39  40  41 0
 6-311+G(2d,p)
 ****
 1  2  3  4  5  16  17  18  19  20  21  22  23  24  25 0
 3-21G
 ****
 27  28  30  31  32  35  37  42  43  44  45  46  47 0
 3-21G
 ****
 48  49 0
 3-21G
 ****


