%nproc=1
%NoSave
%Mem=1900MB
#P OB98/GEN NMR

erre ene a

0 1
  C       54.167      22.343    -687.513
  O       54.758      21.096    -687.911
  P       53.828      20.064    -688.714
  C       53.157      20.023    -691.232
  O       54.205      20.148    -690.273
  C       53.741      19.955    -692.647
  O       54.625      21.072    -692.899
  C       54.589      18.714    -692.880
  O       53.753      17.583    -693.111
  C       55.421      19.122    -694.097
  O       54.769      18.776    -695.334
  C       55.539      20.655    -693.940
  N       56.898      21.085    -693.650
  C       57.882      20.618    -694.541
  O       57.576      19.883    -695.492
  N       59.188      20.996    -694.327
  C       59.491      21.729    -693.294
  N       60.798      22.054    -693.136
  C       58.486      22.204    -692.322
  C       57.226      21.851    -692.553
  O       52.381      20.739    -688.648
  O       53.820      18.684    -688.131
  H       54.601      17.813    -695.269
  H       51.686      20.060    -688.618
  H       58.786      22.810    -691.482
  H       56.422      22.156    -691.888
  H       55.214      21.161    -694.860
  H       56.389      18.611    -694.099
  H       55.251      18.532    -692.025
  H       52.914      19.988    -693.368
  H       61.456      21.706    -693.827
  H       52.472      20.878    -691.155
  H       61.140      22.616    -692.367
  H       52.562      19.135    -691.010
  P       53.799      16.397    -692.023
  C       52.876      16.129    -689.643
  O       52.873      16.921    -690.814
  O       55.273      16.553    -691.411
  O       53.531      15.015    -692.517
  H       55.456      15.817    -690.791
  H       52.383      16.682    -688.840
  H       53.892      15.883    -689.331
  H       52.308      15.207    -689.814
  H       54.892      22.931    -686.990
  H       53.332      22.153    -686.871
  H       53.836      22.874    -688.381

 3  4  5  6  7  8  9  10  11  12  13  21  23  27  28  29  30  32 0
 6-311+G(2d,p)
 ****
 34  35 0
 6-311+G(2d,p)
 ****
 1  2  14  15  16  17  18  19  20  22  24  25  26 0
 3-21G
 ****
 31  33  36  37  38  39  40  41  42  43  44  45  46 0
 3-21G
 ****


