%nproc=1
%NoSave
%Mem=1900MB
#P OB98/GEN NMR

erre ene a

0 1
  C        5.506      28.274     -49.002
  O        6.085      29.429     -49.573
  H        5.684      27.426     -49.667
  H        4.427      28.409     -48.886
  H        5.962      28.065     -48.031
  P        5.885      30.808     -48.779
  C        3.844      31.594     -50.180
  O        4.333      31.192     -48.908
  C        2.443      32.177     -50.029
  O        1.528      31.149     -49.588
  C        2.340      33.284     -48.989
  O        2.822      34.524     -49.474
  C        0.843      33.295     -48.727
  O        0.144      34.083     -49.704
  C        0.473      31.801     -48.853
  N        0.247      31.180     -47.552
  C       -1.068      31.196     -47.096
  O       -1.995      31.697     -47.730
  N       -1.278      30.648     -45.860
  C       -0.318      30.133     -45.040
  O       -0.563      29.723     -43.912
  C        1.051      30.129     -45.580
  C        1.270      30.653     -46.789
  O        6.622      31.875     -49.717
  O        6.419      30.818     -47.386
  H        7.493      32.103     -49.342
  H       -0.797      34.072     -49.439
  H       -2.222      30.660     -45.508
  H        1.837      29.721     -44.957
  H        2.274      30.680     -47.200
  H       -0.443      31.684     -49.446
  H        0.610      33.721     -47.752
  H        2.858      32.989     -48.068
  H        2.109      32.537     -51.011
  H        3.799      30.726     -50.846
  H        4.530      32.332     -50.609
  P        3.880      35.336     -48.583
  C        1.964      36.452     -47.175
  O        3.146      35.673     -47.198
  O        3.923      36.736     -49.353
  O        5.197      34.652     -48.443
  H        3.061      36.995     -49.720
  H        1.630      36.564     -46.165
  H        1.204      35.964     -47.749
  H        2.164      37.416     -47.594

 6  7  8  9  10  11  12  13  14  15  16  27  31  32  33  34  35 0
 6-311+G(2d,p)
 ****
 36  37 0
 6-311+G(2d,p)
 ****
 1  2  3  4  5  17  18  19  20  21  22  23  24  25 0
 3-21G
 ****
 26  28  29  30  38  39  40  41  42  43  44  45 0
 3-21G
 ****


