%nproc=1
%NoSave
%Mem=1900MB
#P OB98/GEN NMR

erre ene a

0 1
  C        1.471     -28.214    -113.870
  O        2.463     -29.222    -113.956
  P        2.315     -30.347    -115.085
  C        4.193     -29.487    -116.664
  O        2.805     -29.710    -116.474
  C        4.708     -30.313    -117.845
  O        6.124     -30.026    -118.053
  C        4.574     -31.830    -117.652
  O        4.316     -32.409    -118.940
  C        5.962     -32.226    -117.185
  O        6.237     -33.607    -117.356
  C        6.813     -31.292    -118.051
  N        8.185     -31.159    -117.564
  C        8.904     -32.331    -117.351
  O        8.455     -33.459    -117.545
  N       10.163     -32.172    -116.837
  C       10.727     -30.994    -116.441
  O       11.814     -30.933    -115.879
  C        9.922     -29.789    -116.690
  C        8.709     -29.924    -117.233
  O        0.731     -30.478    -115.266
  O        2.949     -31.655    -114.751
  H        6.199     -33.797    -118.311
  H        0.396     -31.257    -114.785
  H       10.703     -33.009    -116.686
  H       10.347     -28.835    -116.407
  H        8.084     -29.054    -117.408
  H        6.829     -31.650    -119.089
  H        6.067     -31.991    -116.120
  H        3.791     -32.115    -116.943
  H        4.177     -29.995    -118.751
  H        4.730     -29.780    -115.760
  H        4.375     -28.420    -116.831
  P        3.536     -33.812    -118.991
  C        1.135     -32.782    -119.027
  O        2.094     -33.561    -118.345
  O        4.327     -34.633    -117.864
  O        3.562     -34.464    -120.335
  H        4.504     -34.103    -117.069
  H        1.208     -32.910    -120.111
  H        1.281     -31.728    -118.779
  H        0.137     -33.086    -118.704
  H        1.712     -27.544    -113.072
  H        0.519     -28.665    -113.682
  H        1.433     -27.672    -114.792

 3  4  5  6  7  8  9  10  11  12  13  23  28  29  30  31  32 0
 6-311+G(2d,p)
 ****
 33  34 0
 6-311+G(2d,p)
 ****
 1  2  14  15  16  17  18  19  20  21  22  24  25  26 0
 3-21G
 ****
 27  35  36  37  38  39  40  41  42  43  44  45 0
 3-21G
 ****


