%nproc=1
%NoSave
%Mem=1900MB
#P OB98/GEN NMR

erre ene a

0 1
  C      437.625    -889.890    -403.709
  O      438.309    -891.010    -403.205
  H      437.828    -889.030    -403.053
  H      436.547    -890.060    -403.722
  H      437.980    -889.640    -404.718
  P      438.302    -892.370    -404.074
  C      436.241    -893.730    -403.352
  O      437.641    -893.510    -403.169
  C      435.722    -894.650    -402.249
  O      436.177    -895.990    -402.453
  C      436.195    -894.260    -400.851
  O      435.516    -893.110    -400.356
  C      435.931    -895.550    -400.084
  O      434.556    -895.630    -399.696
  C      436.256    -896.610    -401.148
  N      437.588    -897.210    -400.940
  C      437.771    -898.480    -401.478
  O      436.921    -899.090    -402.097
  N      438.991    -899.070    -401.204
  C      439.957    -898.570    -400.368
  O      440.894    -899.220    -399.959
  C      439.708    -897.190    -399.866
  C      438.554    -896.610    -400.183
  O      439.622    -892.730    -404.685
  O      437.191    -892.090    -405.191
  H      437.631    -891.850    -406.034
  H      434.362    -894.790    -399.218
  H      439.120    -900.000    -401.559
  H      440.489    -896.730    -399.267
  H      438.344    -895.600    -399.802
  H      435.517    -897.420    -401.135
  H      436.547    -895.610    -399.183
  H      437.273    -894.070    -400.862
  H      434.616    -894.650    -402.292
  H      436.091    -894.210    -404.331
  H      435.717    -892.760    -403.352
  P      436.317    -891.800    -399.930
  C      437.256    -892.900    -397.790
  O      436.488    -891.830    -398.327
  O      435.814    -890.520    -400.478
  O      437.822    -892.090    -400.429
  H      438.137    -891.320    -400.937
  H      437.296    -892.810    -396.725
  H      438.248    -892.862    -398.189
  H      436.801    -893.832    -398.053

 6  7  8  9  10  11  12  13  14  15  16  27  31  32  33  34  35 0
 6-311+G(2d,p)
 ****
 36  37 0
 6-311+G(2d,p)
 ****
 1  2  3  4  5  17  18  19  20  21  22  23  24  25 0
 3-21G
 ****
 26  28  29  30  38  39  40  41  42  43  44  45 0
 3-21G
 ****


