%nproc=1
%NoSave
%Mem=1900MB
#P OB98/GEN NMR

erre ene a

0 1
  C      771.260    -898.340    -505.009
  O      771.146    -897.990    -503.647
  H      771.470    -899.410    -505.110
  H      770.308    -898.110    -505.509
  H      772.051    -897.760    -505.490
  P      772.448    -898.250    -502.735
  C      772.746    -895.900    -501.671
  O      773.227    -896.850    -502.622
  C      773.686    -894.710    -501.582
  O      774.857    -895.130    -500.811
  C      774.211    -894.210    -502.930
  O      774.030    -892.780    -503.027
  C      775.696    -894.500    -502.949
  O      776.452    -893.530    -503.622
  C      776.017    -894.560    -501.438
  N      780.148    -894.930    -498.485
  C      778.977    -894.290    -498.301
  N      777.879    -894.290    -499.097
  C      778.058    -895.120    -500.146
  C      779.181    -895.880    -500.455
  C      780.275    -895.750    -499.565
  N      781.477    -896.370    -499.784
  N      779.004    -896.610    -501.611
  C      777.784    -896.250    -502.034
  N      777.179    -895.360    -501.176
  O      773.383    -899.140    -503.700
  O      772.162    -898.950    -501.455
  H      777.383    -893.840    -503.668
  H      773.546    -900.000    -503.270
  H      778.929    -893.660    -497.416
  H      777.319    -896.590    -502.948
  H      776.170    -893.560    -501.013
  H      775.832    -895.480    -503.425
  H      773.694    -894.690    -503.790
  H      773.195    -893.930    -501.035
  H      772.663    -896.380    -500.683
  H      782.264    -896.130    -499.167
  H      781.630    -896.880    -500.643
  H      771.749    -895.570    -501.991
  P      772.530    -892.260    -503.215
  C      772.839    -890.440    -501.379
  O      772.051    -891.550    -501.833
  O      771.643    -893.590    -503.252
  O      772.311    -891.430    -504.461
  H      771.144    -893.650    -504.087
  H      772.428    -890.060    -500.467
  H      772.832    -889.670    -502.122
  H      773.845    -890.762    -501.209

 6  7  8  9  10  11  12  13  14  15  25  28  32  33  34  35 0
 6-311+G(2d,p)
 ****
 36  39  40 0
 6-311+G(2d,p)
 ****
 1  2  3  4  5  16  17  18  19  20  21  22  23  24 0
 3-21G
 ****
 26  27  29  30  31  37  38  41  42  43  44  45  46  47  48 0
 3-21G
 ****


