%nproc=1
%NoSave
%Mem=1900MB
#P OB98/GEN NMR

erre ene a

0 1
  C      182.994      82.794     162.586
  O      183.378      83.079     163.919
  H      183.622      83.379     161.909
  H      181.947      83.071     162.426
  H      183.140      81.732     162.375
  P      182.548      82.344     165.079
  C      181.098      83.859     166.599
  O      181.267      83.284     165.310
  C      182.019      85.066     166.772
  O      181.783      86.027     165.727
  C      181.837      85.813     168.089
  O      182.571      85.179     169.124
  C      182.431      87.170     167.737
  O      183.868      87.107     167.831
  C      182.011      87.354     166.267
  N      180.022      92.088     166.327
  C      181.210      91.609     166.763
  N      181.649      90.332     166.766
  C      180.724      89.507     166.241
  C      179.470      89.854     165.761
  C      179.128      91.216     165.812
  N      177.916      91.702     165.370
  N      178.794      88.741     165.304
  C      179.650      87.751     165.452
  N      180.820      88.155     166.049
  O      183.324      81.977     166.298
  O      181.925      81.107     164.271
  H      184.092      87.190     168.778
  H      181.630      81.390     163.387
  H      181.894      92.350     167.165
  H      179.484      86.729     165.127
  H      182.809      87.817     165.674
  H      182.100      87.961     168.412
  H      180.778      85.939     168.341
  H      183.056      84.715     166.662
  H      181.314      83.115     167.376
  H      177.678      92.651     165.619
  H      177.204      91.034     165.107
  H      180.051      84.164     166.692
  P      182.066      85.229     170.647
  C      183.358      86.715     172.301
  O      182.488      86.685     171.175
  O      182.508      84.080     171.482
  O      180.474      85.338     170.531
  H      180.060      85.110     171.388
  H      183.569      87.731     172.562
  H      184.271      86.212     172.060
  H      182.888      86.225     173.128

 6  7  8  9  10  11  12  13  14  15  25  28  32  33  34  35 0
 6-311+G(2d,p)
 ****
 36  39  40 0
 6-311+G(2d,p)
 ****
 1  2  3  4  5  16  17  18  19  20  21  22  23  24 0
 3-21G
 ****
 26  27  29  30  31  37  38  41  42  43  44  45  46  47 0
 3-21G
 ****
 48 0
 3-21G
 ****


