%nproc=1
%NoSave
%Mem=1900MB
#P OB98/GEN NMR

erre ene a

0 1
  C      867.933    -320.913    -785.171
  O      867.570    -319.783    -784.390
  P      866.501    -318.738    -784.945
  C      864.724    -319.583    -783.249
  O      865.428    -318.487    -783.778
  C      863.764    -319.133    -782.118
  O      864.582    -318.735    -780.981
  C      862.921    -317.921    -782.454
  O      861.825    -317.863    -781.536
  C      863.866    -316.770    -782.168
  O      863.188    -315.533    -781.969
  C      864.674    -317.304    -780.944
  N      866.085    -316.870    -780.995
  C      866.313    -315.494    -781.047
  O      865.416    -314.657    -780.975
  N      867.620    -315.111    -781.264
  C      868.662    -315.974    -781.472
  O      869.736    -315.633    -781.971
  C      868.405    -317.387    -781.176
  C      867.131    -317.766    -780.976
  O      865.682    -319.593    -786.031
  O      867.076    -317.499    -785.547
  H      862.589    -315.664    -781.188
  H      866.045    -319.439    -786.925
  H      867.758    -314.132    -781.444
  H      869.237    -318.075    -781.171
  H      866.900    -318.823    -780.806
  H      864.233    -316.942    -779.996
  H      864.545    -316.647    -783.036
  H      862.553    -317.887    -783.482
  H      863.141    -319.977    -781.813
  H      865.442    -320.325    -782.877
  H      864.138    -320.074    -784.028
  P      860.406    -317.337    -782.085
  C      859.203    -319.039    -780.598
  O      859.326    -317.679    -780.944
  O      860.037    -317.749    -783.460
  O      860.553    -315.736    -781.950
  H      859.891    -315.305    -782.506
  H      858.886    -319.120    -779.542
  H      860.146    -319.578    -780.703
  H      858.447    -319.516    -781.225
  H      868.656    -321.496    -784.640
  H      868.351    -320.585    -786.100
  H      867.065    -321.509    -785.361

 3  4  5  6  7  8  9  10  11  12  13  23  28  29  30  31  32 0
 6-311+G(2d,p)
 ****
 33  34 0
 6-311+G(2d,p)
 ****
 1  2  14  15  16  17  18  19  20  21  22  24  25  26  27 0
 3-21G
 ****
 35  36  37  38  39  40  41  42  43  44  45 0
 3-21G
 ****


