%nproc=1
%NoSave
%Mem=1900MB
#P OB98/GEN NMR

erre ene a

0 1
  C     -413.098    -288.200      76.297
  O     -411.777    -288.385      75.819
  H     -413.254    -287.139      76.496
  H     -413.247    -288.766      77.221
  H     -413.817    -288.526      75.541
  P     -411.333    -289.894      75.493
  C     -409.705    -289.849      77.510
  O     -409.853    -290.014      76.102
  C     -408.233    -289.937      77.905
  O     -407.737    -291.278      77.724
  C     -407.315    -289.025      77.093
  O     -407.322    -287.713      77.630
  C     -405.970    -289.705      77.316
  O     -405.430    -289.315      78.594
  C     -406.341    -291.198      77.339
  N     -402.925    -293.196      74.069
  C     -402.768    -292.397      75.141
  N     -403.726    -291.856      75.933
  C     -404.953    -292.229      75.522
  C     -405.258    -293.046      74.441
  C     -404.179    -293.547      73.698
  N     -404.340    -294.360      72.590
  N     -406.628    -293.206      74.327
  C     -407.125    -292.551      75.357
  N     -406.160    -291.912      76.090
  O     -411.503    -290.327      74.074
  O     -412.215    -290.706      76.558
  H     -405.483    -288.342      78.636
  H     -412.230    -290.238      77.412
  H     -401.750    -292.151      75.408
  H     -408.184    -292.524      75.621
  H     -405.766    -291.750      78.096
  H     -405.227    -289.429      76.564
  H     -407.554    -289.047      76.029
  H     -408.157    -289.709      78.979
  H     -410.280    -290.626      78.041
  H     -403.533    -294.510      72.013
  H     -405.280    -294.511      72.247
  H     -410.123    -288.874      77.775
  P     -407.814    -286.464      76.752
  C     -406.215    -285.237      78.347
  O     -407.436    -285.166      77.621
  O     -409.232    -286.548      76.291
  O     -406.775    -286.396      75.543
  H     -407.143    -285.849      74.814
  H     -406.066    -284.324      78.885
  H     -405.403    -285.386      77.666
  H     -406.257    -286.054      79.036

 6  7  8  9  10  11  12  13  14  15  25  28  32  33  34  35 0
 6-311+G(2d,p)
 ****
 36  39  40 0
 6-311+G(2d,p)
 ****
 1  2  3  4  5  16  17  18  19  20  21  22  23  24 0
 3-21G
 ****
 26  27  29  30  31  37  38  41  42  43  44  45  46  47 0
 3-21G
 ****
 48 0
 3-21G
 ****


