%nproc=1
%NoSave
%Mem=1900MB
#P OB98/GEN NMR

erre ene a

0 1
  C       48.791      32.401      42.702
  O       47.659      32.521      41.844
  P       47.724      32.963      40.313
  C       47.532      30.708      38.989
  O       48.356      31.758      39.472
  C       47.306      30.767      37.469
  O       48.585      30.680      36.787
  C       46.483      29.567      37.001
  O       45.072      29.594      37.093
  C       47.007      29.261      35.606
  O       46.237      29.889      34.581
  C       48.428      29.831      35.631
  N       51.324      26.655      32.857
  C       50.326      27.514      32.442
  N       50.022      27.494      31.126
  N       49.674      28.308      33.246
  C       50.015      28.166      34.546
  C       50.972      27.336      35.083
  C       51.731      26.501      34.175
  O       52.632      25.731      34.489
  N       51.025      27.447      36.448
  C       50.086      28.322      36.740
  N       49.447      28.795      35.616
  O       48.271      34.326      40.057
  O       46.174      32.968      39.863
  H       46.256      30.850      34.737
  H       46.081      33.676      39.194
  H       51.811      26.082      32.190
  H       49.832      28.653      37.740
  H       48.616      30.463      34.755
  H       46.966      28.183      35.407
  H       50.403      26.823      30.478
  H       46.785      28.712      37.620
  H       49.153      27.956      30.855
  H       46.877      31.728      37.177
  H       46.579      30.784      39.520
  H       47.961      29.742      39.260
  P       44.173      28.756      38.119
  C       43.199      30.724      39.439
  O       44.056      29.597      39.475
  O       45.112      27.533      38.546
  O       42.876      28.264      37.566
  H       44.583      26.827      38.961
  H       43.433      31.376      40.284
  H       42.159      30.396      39.520
  H       43.333      31.286      38.509
  H       48.470      32.090      43.674
  H       49.285      33.347      42.775
  H       49.468      31.676      42.301

 3  4  5  6  7  8  9  10  11  12  23  26  30  31 0
 6-311+G(2d,p)
 ****
 33  35  36  37  38 0
 6-311+G(2d,p)
 ****
 1  2  13  14  15  16  17  18  19  20  21  22  24  25 0
 3-21G
 ****
 27  28  29  32  34  39  40  41  42  43  44  45  46  47  48  49 0
 3-21G
 ****


