%nproc=1
%NoSave
%Mem=1900MB
#P OB98/GEN NMR

erre ene a

0 1
  C      -77.429    -110.007      78.546
  O      -78.181    -110.497      77.456
  H      -76.486    -109.604      78.171
  H      -77.210    -110.826      79.236
  H      -77.970    -109.213      79.068
  P      -79.720    -110.851      77.730
  C      -79.087    -113.118      78.813
  O      -79.755    -111.875      78.969
  C      -79.969    -114.261      79.319
  O      -80.204    -114.074      80.739
  C      -81.335    -114.341      78.627
  O      -81.679    -115.717      78.440
  C      -82.279    -113.711      79.636
  O      -83.623    -114.167      79.489
  C      -81.627    -114.115      80.953
  N      -84.901    -113.466      84.728
  C      -84.723    -114.538      83.874
  N      -85.546    -115.594      84.048
  N      -83.817    -114.570      82.933
  C      -83.041    -113.460      82.900
  C      -83.121    -112.333      83.684
  C      -84.148    -112.297      84.703
  O      -84.369    -111.369      85.473
  N      -82.176    -111.406      83.318
  C      -81.530    -111.973      82.316
  N      -82.013    -113.221      82.031
  O      -80.112    -111.766      76.476
  O      -80.635    -109.678      77.856
  H      -83.647    -115.108      79.766
  H      -80.790    -111.315      75.939
  H      -85.624    -113.488      85.427
  H      -80.717    -111.525      81.762
  H      -81.899    -115.131      81.261
  H      -82.275    -112.621      79.514
  H      -86.233    -115.656      84.782
  H      -81.360    -113.827      77.665
  H      -85.410    -116.407      83.457
  H      -79.417    -115.202      79.210
  H      -78.156    -113.096      79.388
  H      -78.850    -113.272      77.756
  P      -81.114    -116.435      77.121
  C      -83.335    -117.383      76.184
  O      -82.279    -116.449      76.015
  O      -80.995    -117.969      77.563
  O      -79.801    -115.898      76.656
  H      -80.057    -118.211      77.673
  H      -84.034    -117.281      75.380
  H      -83.831    -117.196      77.114
  H      -82.936    -118.376      76.186

 6  7  8  9  10  11  12  13  14  15  26  29  33  34 0
 6-311+G(2d,p)
 ****
 36  38  39  40  41 0
 6-311+G(2d,p)
 ****
 1  2  3  4  5  16  17  18  19  20  21  22  23  24  25 0
 3-21G
 ****
 27  28  30  31  32  35  37  42  43  44  45  46  47 0
 3-21G
 ****
 48  49 0
 3-21G
 ****


