%nproc=1
%NoSave
%Mem=1900MB
#P OB98/GEN NMR

erre ene a

0 1
  C      191.261     398.936     243.486
  O      191.118     397.819     244.351
  P      190.240     398.028     245.686
  C      191.949     399.538     246.938
  O      191.274     398.286     246.886
  C      193.435     399.355     247.270
  O      194.118     400.627     247.096
  C      193.701     398.886     248.717
  O      194.851     398.031     248.661
  C      194.020     400.202     249.423
  O      194.680     400.041     250.669
  C      194.816     400.901     248.336
  N      197.788     404.652     250.161
  C      198.001     403.318     250.027
  N      197.160     402.375     249.514
  C      196.007     402.941     249.117
  C      195.637     404.287     249.211
  C      196.596     405.161     249.758
  N      196.374     406.519     249.904
  N      194.367     404.475     248.715
  C      193.965     403.279     248.344
  N      194.919     402.334     248.542
  O      189.692     396.548     245.989
  O      189.126     399.022     245.565
  H      195.458     399.471     250.556
  H      188.779     396.565     246.314
  H      198.973     402.964     250.363
  H      192.989     403.048     247.935
  H      195.835     400.493     248.232
  H      193.081     400.736     249.625
  H      192.868     398.336     249.167
  H      193.868     398.650     246.560
  H      191.495     400.161     247.714
  H      197.030     407.017     250.489
  H      195.418     406.841     249.797
  H      191.821     400.066     245.981
  P      194.790     396.603     249.377
  C      194.939     397.383     251.829
  O      195.636     396.800     250.738
  O      195.816     395.761     248.479
  O      193.422     395.981     249.502
  H      196.668     396.228     248.376
  H      195.592     397.371     252.693
  H      194.032     396.816     252.046
  H      194.686     398.424     251.593
  H      191.863     398.661     242.645
  H      191.732     399.738     244.015
  H      190.296     399.250     243.147

 3  4  5  6  7  8  9  10  11  12  22  25  29  30  31  32 0
 6-311+G(2d,p)
 ****
 33  36  37 0
 6-311+G(2d,p)
 ****
 1  2  13  14  15  16  17  18  19  20  21  23  24  26 0
 3-21G
 ****
 27  28  34  35  38  39  40  41  42  43  44  45  46  47  48 0
 3-21G
 ****


