%nproc=1
%NoSave
%Mem=1900MB
#P OB98/GEN NMR

erre ene a

0 1
  C      221.345     625.387    -381.009
  O      220.585     626.448    -381.544
  H      220.939     624.443    -381.371
  H      221.287     625.400    -379.914
  H      222.391     625.467    -381.327
  P      221.129     627.935    -381.274
  C      223.140     627.636    -382.948
  O      222.694     627.894    -381.626
  C      224.395     628.444    -383.271
  O      225.408     628.150    -382.271
  C      224.992     628.135    -384.647
  O      225.533     629.344    -385.184
  C      226.125     627.175    -384.327
  O      227.124     627.166    -385.349
  C      226.592     627.706    -382.963
  N      227.324     626.698    -382.192
  C      228.674     626.542    -382.482
  O      229.209     627.226    -383.360
  N      229.396     625.590    -381.802
  C      228.799     624.817    -380.955
  N      229.558     623.874    -380.332
  C      227.352     624.910    -380.647
  C      226.691     625.870    -381.287
  O      221.095     628.015    -379.680
  O      220.355     629.015    -381.965
  H      227.470     628.080    -385.448
  H      221.448     627.221    -379.246
  H      226.898     624.233    -379.941
  H      225.628     626.022    -381.119
  H      227.250     628.580    -383.091
  H      225.735     626.159    -384.226
  H      224.262     627.714    -385.342
  H      224.155     629.513    -383.177
  H      230.540     623.824    -380.589
  H      222.349     627.884    -383.668
  H      229.193     623.179    -379.695
  H      223.344     626.566    -383.031
  P      224.728     630.130    -386.336
  C      223.865     632.243    -385.115
  O      223.542     630.970    -385.662
  O      224.353     629.316    -387.530
  O      225.764     631.286    -386.758
  H      225.737     631.376    -387.732
  H      222.984     632.688    -384.702
  H      224.255     632.874    -385.886
  H      224.599     632.125    -384.346

 6  7  8  9  10  11  12  13  14  15  16  26  30  31  32  33  35 0
 6-311+G(2d,p)
 ****
 37  38 0
 6-311+G(2d,p)
 ****
 1  2  3  4  5  17  18  19  20  21  22  23  24  25 0
 3-21G
 ****
 27  28  29  34  36  39  40  41  42  43  44  45  46 0
 3-21G
 ****


