%nproc=1
%NoSave
%Mem=1900MB
#P OB98/GEN NMR

erre ene a

0 1
  C      552.633     -89.395      14.934
  O      551.590     -89.662      14.023
  P      551.895     -89.754      12.451
  C      553.261     -88.372      10.760
  O      552.690     -88.416      12.070
  C      553.318     -86.925      10.269
  O      553.983     -86.070      11.229
  C      554.126     -86.743       8.982
  O      553.615     -87.334       7.809
  C      554.325     -85.238       8.977
  O      553.172     -84.565       8.467
  C      554.502     -84.939      10.488
  N      555.908     -84.663      10.824
  C      556.503     -83.618      10.136
  O      555.922     -82.936       9.299
  N      557.818     -83.385      10.433
  C      558.588     -84.111      11.296
  O      559.778     -83.871      11.481
  C      557.909     -85.226      11.970
  C      556.611     -85.452      11.718
  O      550.704     -90.024      11.590
  O      553.035     -90.872      12.355
  H      553.296     -83.610       8.620
  H      553.852     -90.664      12.844
  H      558.272     -82.629       9.940
  H      558.489     -85.816      12.672
  H      556.087     -86.263      12.213
  H      553.915     -84.065      10.773
  H      555.175     -84.945       8.341
  H      555.111     -87.199       9.140
  H      552.292     -86.561      10.157
  H      552.627     -88.959      10.079
  H      554.253     -88.828      10.781
  P      554.461     -87.469       6.456
  C      555.274     -85.879       4.572
  O      554.622     -86.010       5.817
  O      554.076     -88.578       5.532
  O      555.936     -87.746       7.012
  H      556.420     -88.302       6.383
  H      555.335     -84.818       4.311
  H      554.710     -86.390       3.789
  H      556.289     -86.287       4.624
  H      552.240     -89.372      15.929
  H      553.075     -88.448      14.703
  H      553.375     -90.162      14.861

 3  4  5  6  7  8  9  10  11  12  13  23  28  29  30  31  32 0
 6-311+G(2d,p)
 ****
 33  34 0
 6-311+G(2d,p)
 ****
 1  2  14  15  16  17  18  19  20  21  22  24  25  26  27 0
 3-21G
 ****
 35  36  37  38  39  40  41  42  43  44  45 0
 3-21G
 ****


