%nproc=1
%NoSave
%Mem=1900MB
#P OB98/GEN NMR

erre ene a

0 1
  C     -178.326     648.421     239.595
  O     -179.394     648.439     240.512
  H     -177.966     647.396     239.495
  H     -177.508     649.045     239.972
  H     -178.635     648.784     238.611
  P     -180.394     649.691     240.512
  C     -179.021     651.607     241.572
  O     -180.032     650.620     241.769
  C     -179.242     652.827     242.462
  O     -180.444     653.516     242.058
  C     -179.426     652.452     243.934
  O     -178.216     652.333     244.671
  C     -180.268     653.617     244.455
  O     -179.438     654.704     244.899
  C     -181.089     654.033     243.233
  N     -185.449     653.807     245.893
  C     -184.202     654.232     246.308
  N     -184.103     654.604     247.604
  N     -183.152     654.268     245.527
  C     -183.388     653.769     244.287
  C     -184.573     653.302     243.770
  C     -185.742     653.337     244.622
  O     -186.873     652.985     244.295
  N     -184.414     652.833     242.490
  C     -183.119     652.939     242.268
  N     -182.469     653.576     243.299
  O     -181.796     649.047     240.952
  O     -180.527     650.404     239.204
  H     -178.824     654.929     244.177
  H     -182.525     649.538     240.532
  H     -186.224     653.830     246.536
  H     -182.609     652.624     241.361
  H     -181.125     655.126     243.123
  H     -180.875     653.301     245.317
  H     -184.853     654.515     248.268
  H     -180.014     651.531     244.036
  H     -183.172     654.740     248.001
  H     -178.410     653.531     242.326
  H     -179.075     651.895     240.518
  H     -178.029     651.176     241.743
  P     -178.071     651.257     245.848
  C     -179.815     652.269     247.534
  O     -178.469     651.964     247.217
  O     -176.486     651.080     245.968
  O     -178.770     649.956     245.617
  H     -176.192     650.277     245.497
  H     -179.858     652.738     248.495
  H     -180.390     651.367     247.552
  H     -180.214     652.932     246.795

 6  7  8  9  10  11  12  13  14  15  26  29  33  34 0
 6-311+G(2d,p)
 ****
 36  38  39  40  41 0
 6-311+G(2d,p)
 ****
 1  2  3  4  5  16  17  18  19  20  21  22  23  24  25 0
 3-21G
 ****
 27  28  30  31  32  35  37  42  43  44  45  46  47 0
 3-21G
 ****
 48  49 0
 3-21G
 ****


