%nproc=1
%NoSave
%Mem=1900MB
#P OB98/GEN NMR

erre ene a

0 1
  C       56.564     -86.470      46.970
  O       56.281     -85.098      47.248
  P       57.534     -84.154      47.589
  C       58.318     -83.071      45.369
  O       57.548     -82.927      46.554
  C       58.320     -81.786      44.531
  O       56.969     -81.405      44.161
  C       58.948     -80.590      45.251
  O       59.596     -79.787      44.262
  C       57.740     -79.835      45.775
  O       58.063     -78.475      46.052
  C       56.747     -80.056      44.622
  N       55.356     -79.840      45.013
  C       55.031     -78.590      45.544
  O       55.912     -77.748      45.733
  N       53.729     -78.334      45.890
  C       52.836     -79.266      45.767
  N       51.563     -78.953      46.130
  C       53.144     -80.620      45.266
  C       54.408     -80.831      44.908
  O       58.793     -85.038      47.149
  O       57.615     -83.769      49.030
  H       58.658     -78.456      46.832
  H       59.452     -85.060      47.867
  H       52.372     -81.371      45.200
  H       54.731     -81.789      44.528
  H       56.968     -79.378      43.787
  H       57.371     -80.301      46.695
  H       59.663     -80.873      46.028
  H       58.869     -81.986      43.603
  H       51.389     -78.011      46.461
  H       57.918     -83.888      44.765
  H       50.792     -79.600      46.077
  H       59.336     -83.364      45.641
  P       61.189     -79.895      44.120
  C       61.315     -81.632      42.234
  O       61.438     -80.267      42.580
  O       61.479     -81.303      44.836
  O       62.031     -78.809      44.698
  H       62.440     -81.457      44.880
  H       61.386     -81.725      41.147
  H       60.347     -82.023      42.558
  H       62.126     -82.209      42.688
  H       55.651     -86.987      46.760
  H       57.039     -86.915      47.819
  H       57.214     -86.535      46.123

 3  4  5  6  7  8  9  10  11  12  13  21  23  27  28  29  30  32 0
 6-311+G(2d,p)
 ****
 34  35 0
 6-311+G(2d,p)
 ****
 1  2  14  15  16  17  18  19  20  22  24  25  26 0
 3-21G
 ****
 31  33  36  37  38  39  40  41  42  43  44  45  46 0
 3-21G
 ****


