%nproc=1
%NoSave
%Mem=1900MB
#P OB98/GEN NMR

erre ene a

0 1
  C      -39.550     329.416     -98.384
  O      -39.656     328.132     -97.804
  H      -39.596     329.343     -99.474
  H      -40.385     330.031     -98.038
  H      -38.611     329.891     -98.082
  P      -38.536     327.058     -98.215
  C      -40.395     325.692     -99.422
  O      -39.340     325.690     -98.470
  C      -40.979     324.288     -99.533
  O      -40.094     323.442    -100.303
  C      -41.153     323.588     -98.189
  O      -42.345     323.972     -97.525
  C      -41.210     322.136     -98.630
  O      -42.504     321.848     -99.186
  C      -40.136     322.106     -99.730
  N      -35.586     320.129    -101.000
  C      -36.688     320.403    -101.733
  N      -37.851     320.947    -101.324
  C      -37.811     321.229    -100.011
  C      -36.757     321.016     -99.138
  C      -35.599     320.429     -99.679
  N      -34.486     320.120     -98.928
  N      -37.097     321.414     -97.860
  C      -38.327     321.876     -97.968
  N      -38.813     321.756     -99.243
  O      -37.762     326.770     -96.845
  O      -37.627     327.457     -99.329
  H      -43.150     321.923     -98.457
  H      -36.923     326.303     -97.020
  H      -36.627     320.143    -102.786
  H      -38.908     322.297     -97.157
  H      -40.381     321.406    -100.538
  H      -41.051     321.436     -97.805
  H      -40.277     323.731     -97.544
  H      -41.932     324.350    -100.070
  H      -39.999     326.003    -100.396
  H      -33.769     319.570     -99.374
  H      -34.541     320.204     -97.924
  H      -41.170     326.399     -99.106
  P      -42.227     324.424     -95.987
  C      -44.170     323.026     -94.980
  O      -43.702     324.311     -95.368
  O      -41.990     326.001     -96.096
  O      -41.143     323.737     -95.220
  H      -41.429     326.319     -95.364
  H      -45.162     323.111     -94.588
  H      -43.523     322.623     -94.229
  H      -44.177     322.377     -95.831

 6  7  8  9  10  11  12  13  14  15  25  28  32  33  34  35 0
 6-311+G(2d,p)
 ****
 36  39  40 0
 6-311+G(2d,p)
 ****
 1  2  3  4  5  16  17  18  19  20  21  22  23  24 0
 3-21G
 ****
 26  27  29  30  31  37  38  41  42  43  44  45  46  47 0
 3-21G
 ****
 48 0
 3-21G
 ****


