%nproc=1
%NoSave
%Mem=1900MB
#P OB98/GEN NMR

erre ene a

0 1
  C      -30.960      79.889    -123.300
  O      -30.473      78.563    -123.338
  H      -32.032      79.874    -123.512
  H      -30.460      80.501    -124.055
  H      -30.802      80.316    -122.306
  P      -28.898      78.370    -123.106
  C      -28.372      78.722    -125.604
  O      -28.213      79.223    -124.283
  C      -27.323      79.332    -126.535
  O      -27.336      78.599    -127.788
  C      -27.576      80.808    -126.861
  O      -26.323      81.483    -126.971
  C      -28.235      80.750    -128.229
  O      -28.093      81.970    -128.950
  C      -27.523      79.549    -128.849
  N      -27.222      77.610    -133.546
  C      -26.275      77.952    -132.647
  N      -26.446      78.442    -131.401
  C      -27.755      78.513    -131.095
  C      -28.831      78.200    -131.905
  C      -28.524      77.736    -133.196
  N      -29.479      77.418    -134.132
  N      -30.018      78.452    -131.246
  C      -29.664      78.899    -130.055
  N      -28.305      78.971    -129.928
  O      -28.431      76.958    -122.990
  O      -28.638      79.286    -121.820
  H      -28.458      81.842    -129.851
  H      -29.069      80.157    -121.908
  H      -25.246      77.825    -132.971
  H      -30.347      79.196    -129.266
  H      -26.540      79.810    -129.263
  H      -29.306      80.550    -128.118
  H      -28.205      81.308    -126.125
  H      -26.331      79.187    -126.092
  H      -29.374      78.959    -125.978
  H      -29.170      77.090    -135.034
  H      -30.456      77.499    -133.891
  H      -28.263      77.633    -125.568
  P      -25.890      82.513    -125.822
  C      -27.087      84.618    -126.702
  O      -27.031      83.635    -125.678
  O      -24.498      83.039    -125.916
  O      -26.087      81.651    -124.483
  H      -25.338      81.823    -123.880
  H      -27.882      85.304    -126.495
  H      -27.263      84.142    -127.644
  H      -26.159      85.149    -126.738

 6  7  8  9  10  11  12  13  14  15  25  28  32  33  34  35 0
 6-311+G(2d,p)
 ****
 36  39  40 0
 6-311+G(2d,p)
 ****
 1  2  3  4  5  16  17  18  19  20  21  22  23  24 0
 3-21G
 ****
 26  27  29  30  31  37  38  41  42  43  44  45  46  47 0
 3-21G
 ****
 48 0
 3-21G
 ****


