%nproc=1
%NoSave
%Mem=1900MB
#P OB98/GEN NMR

erre ene a

0 1
  C      -13.162     157.242      -1.345
  O      -13.317     156.089      -0.543
  H      -12.113     157.368      -1.623
  H      -13.756     157.122      -2.255
  H      -13.514     158.127      -0.808
  P      -12.500     156.070       0.838
  C      -13.402     154.037       2.161
  O      -12.394     154.531       1.291
  C      -14.558     153.462       1.347
  O      -14.013     152.512       0.395
  C      -15.619     152.736       2.192
  O      -16.932     153.204       1.861
  C      -15.502     151.284       1.766
  O      -16.751     150.602       1.768
  C      -14.908     151.393       0.367
  N      -15.040     147.364      -2.753
  C      -15.635     148.574      -2.831
  N      -15.483     149.638      -2.018
  C      -14.583     149.375      -1.055
  C      -13.878     148.199      -0.862
  C      -14.151     147.150      -1.755
  N      -13.586     145.899      -1.643
  N      -13.047     148.300       0.238
  C      -13.281     149.502       0.726
  N      -14.212     150.182      -0.013
  O      -13.536     156.702       1.885
  O      -11.217     156.829       0.811
  H      -17.098     150.636       2.678
  H      -13.150     157.518       2.255
  H      -16.334     148.702      -3.654
  H      -12.843     149.909       1.629
  H      -15.679     151.598      -0.387
  H      -14.821     150.765       2.450
  H      -15.453     152.852       3.267
  H      -15.018     154.271       0.768
  H      -13.778     154.853       2.788
  H      -13.925     145.174      -2.253
  H      -13.010     145.703      -0.836
  H      -12.969     153.267       2.808
  P      -17.505     154.405       2.766
  C      -18.995     155.296       0.833
  O      -18.938     154.831       2.176
  O      -16.549     155.631       2.390
  O      -17.477     154.120       4.230
  H      -16.133     155.988       3.198
  H      -20.006     155.540       0.583
  H      -18.640     154.531       0.175
  H      -18.382     156.167       0.731

 6  7  8  9  10  11  12  13  14  15  25  28  32  33  34  35 0
 6-311+G(2d,p)
 ****
 36  39  40 0
 6-311+G(2d,p)
 ****
 1  2  3  4  5  16  17  18  19  20  21  22  23  24 0
 3-21G
 ****
 26  27  29  30  31  37  38  41  42  43  44  45  46  47  48 0
 3-21G
 ****


