%nproc=1
%NoSave
%Mem=1900MB
#P OB98/GEN NMR

erre ene a

0 1
  C     -411.074     426.932    -292.696
  O     -410.028     427.840    -292.974
  H     -410.653     425.920    -292.627
  H     -411.821     426.949    -293.494
  H     -411.546     427.181    -291.742
  P     -410.459     429.369    -293.219
  C     -410.275     430.821    -295.374
  O     -410.403     429.527    -294.815
  C     -410.029     430.715    -296.881
  O     -408.719     430.166    -297.145
  C     -411.007     429.793    -297.607
  O     -412.264     430.402    -297.853
  C     -410.240     429.546    -298.894
  O     -410.338     430.700    -299.745
  C     -408.803     429.373    -298.353
  N     -408.455     427.973    -298.082
  C     -407.980     427.215    -299.151
  O     -407.876     427.714    -300.272
  N     -407.663     425.890    -298.945
  C     -407.802     425.368    -297.763
  N     -407.490     424.055    -297.621
  C     -408.281     426.135    -296.598
  C     -408.582     427.408    -296.822
  O     -409.175     430.202    -292.743
  O     -411.736     429.788    -292.575
  H     -410.079     430.408    -300.644
  H     -409.291     431.159    -292.968
  H     -408.385     425.659    -295.629
  H     -408.951     428.040    -296.012
  H     -408.070     429.768    -299.066
  H     -410.621     428.692    -299.461
  H     -411.126     428.841    -297.082
  H     -410.048     431.728    -297.301
  H     -407.218     423.534    -298.446
  H     -409.433     431.328    -294.896
  H     -407.732     423.523    -296.794
  H     -411.185     431.399    -295.199
  P     -413.417     429.492    -298.495
  C     -414.572     429.657    -300.822
  O     -413.354     429.711    -300.086
  O     -414.762     430.266    -298.088
  O     -413.432     428.067    -298.039
  H     -415.468     429.635    -297.849
  H     -414.369     429.820    -301.860
  H     -415.238     430.415    -300.465
  H     -415.024     428.696    -300.694

 6  7  8  9  10  11  12  13  14  15  16  26  30  31  32  33  35 0
 6-311+G(2d,p)
 ****
 37  38 0
 6-311+G(2d,p)
 ****
 1  2  3  4  5  17  18  19  20  21  22  23  24  25 0
 3-21G
 ****
 27  28  29  34  36  39  40  41  42  43  44  45  46 0
 3-21G
 ****


