%nproc=1
%NoSave
%Mem=1900MB
#P OB98/GEN NMR

erre ene a

0 1
  C     -451.513    -501.507     525.607
  O     -450.414    -502.392     525.752
  H     -451.716    -501.376     524.540
  H     -451.271    -500.533     526.038
  H     -452.408    -501.918     526.086
  P     -450.037    -502.918     527.216
  C     -447.602    -503.373     526.477
  O     -448.794    -503.917     527.040
  C     -446.461    -504.376     526.597
  O     -446.054    -504.506     527.983
  C     -446.821    -505.785     526.138
  O     -446.852    -505.862     524.725
  C     -445.715    -506.592     526.804
  O     -444.499    -506.515     526.047
  C     -445.572    -505.854     528.162
  N     -446.275    -506.524     529.254
  C     -445.568    -506.689     530.444
  O     -444.396    -506.340     530.579
  N     -446.251    -507.295     531.466
  C     -447.519    -507.812     531.391
  O     -448.063    -508.389     532.330
  C     -448.204    -507.635     530.104
  C     -447.564    -507.012     529.115
  O     -451.169    -503.459     528.026
  O     -449.369    -501.639     527.916
  H     -443.799    -506.916     526.602
  H     -450.019    -501.209     528.502
  H     -445.755    -507.433     532.333
  H     -449.201    -508.042     530.009
  H     -448.053    -506.882     528.151
  H     -444.511    -505.778     528.436
  H     -445.963    -507.656     526.893
  H     -447.787    -506.092     526.568
  H     -445.603    -503.989     526.030
  H     -447.344    -502.455     527.026
  H     -447.790    -503.119     525.430
  P     -448.121    -506.474     523.970
  C     -446.777    -508.368     522.879
  O     -447.588    -507.218     522.647
  O     -449.242    -505.518     523.730
  O     -448.587    -507.687     524.905
  H     -449.404    -507.446     525.382
  H     -446.476    -508.787     521.942
  H     -447.337    -509.094     523.431
  H     -445.910    -508.086     523.439

 6  7  8  9  10  11  12  13  14  15  16  26  31  32  33  34  35 0
 6-311+G(2d,p)
 ****
 36  37 0
 6-311+G(2d,p)
 ****
 1  2  3  4  5  17  18  19  20  21  22  23  24  25 0
 3-21G
 ****
 27  28  29  30  38  39  40  41  42  43  44  45 0
 3-21G
 ****


