%nproc=1
%NoSave
%Mem=1900MB
#P OB98/GEN NMR

erre ene a

0 1
  C       75.417     866.290    -124.839
  O       75.071     864.986    -125.280
  H       75.459     866.330    -123.747
  H       76.400     866.541    -125.250
  H       74.682     867.013    -125.217
  P       73.698     864.387    -124.702
  C       74.897     862.470    -123.423
  O       74.068     863.627    -123.326
  C       75.407     862.081    -122.037
  O       76.242     863.112    -121.506
  C       74.302     861.869    -121.000
  O       73.678     860.596    -121.122
  C       75.115     861.952    -119.699
  O       75.775     860.684    -119.462
  C       76.170     863.024    -120.046
  N       77.044     866.394    -116.282
  C       77.535     865.164    -116.509
  N       77.248     864.310    -117.535
  C       76.372     864.869    -118.377
  C       75.784     866.127    -118.270
  C       76.138     866.910    -117.171
  N       75.628     868.173    -116.915
  N       74.936     866.369    -119.330
  C       75.003     865.277    -120.061
  N       75.857     864.349    -119.529
  O       73.364     863.186    -125.706
  O       72.571     865.368    -124.600
  H       76.348     860.809    -118.699
  H       72.387     863.141    -125.824
  H       78.259     864.802    -115.792
  H       74.468     865.123    -120.992
  H       77.160     862.751    -119.693
  H       74.518     862.185    -118.828
  H       73.571     862.690    -121.013
  H       75.995     861.158    -122.149
  H       75.741     862.683    -124.067
  H       76.068     868.748    -116.228
  H       74.956     868.549    -117.582
  H       74.308     861.651    -123.860
  P       72.461     860.267    -120.111
  C       73.519     858.072    -119.233
  O       73.125     859.400    -118.933
  O       71.613     859.165    -120.925
  O       71.646     861.418    -119.699
  H       70.672     859.184    -120.617
  H       73.942     857.620    -118.360
  H       74.247     858.084    -120.017
  H       72.665     857.509    -119.548

 6  7  8  9  10  11  12  13  14  15  25  28  32  33  34  35 0
 6-311+G(2d,p)
 ****
 36  39  40 0
 6-311+G(2d,p)
 ****
 1  2  3  4  5  16  17  18  19  20  21  22  23  24 0
 3-21G
 ****
 26  27  29  30  31  37  38  41  42  43  44  45  46  47  48 0
 3-21G
 ****


