%nproc=1
%NoSave
%Mem=1900MB
#P OB98/GEN NMR

erre ene a

0 1
  C      338.641    1172.462    -609.092
  O      337.655    1173.351    -608.611
  H      338.314    1172.062    -610.048
  H      338.776    1171.636    -608.388
  H      339.585    1172.992    -609.237
  P      337.856    1174.039    -607.176
  C      338.740    1176.148    -608.375
  O      338.979    1175.178    -607.364
  C      339.932    1177.122    -608.460
  O      341.105    1176.330    -608.769
  C      339.756    1178.171    -609.565
  O      339.913    1179.507    -609.099
  C      340.676    1177.681    -610.675
  O      341.156    1178.691    -611.538
  C      341.773    1176.933    -609.909
  N      342.470    1175.919    -610.681
  C      343.245    1176.355    -611.755
  O      343.416    1177.530    -612.079
  N      343.867    1175.368    -612.481
  C      343.786    1174.024    -612.245
  O      344.373    1173.188    -612.924
  C      342.935    1173.621    -611.120
  C      342.315    1174.571    -610.402
  O      338.092    1173.100    -606.045
  O      336.519    1174.887    -606.957
  H      340.388    1179.049    -612.024
  H      335.929    1174.409    -606.342
  H      344.443    1175.672    -613.254
  H      342.819    1172.569    -610.906
  H      341.683    1174.319    -609.558
  H      342.521    1177.641    -609.528
  H      340.129    1176.959    -611.298
  H      338.718    1178.164    -609.953
  H      340.081    1177.582    -607.483
  H      337.822    1176.684    -608.115
  H      338.597    1175.649    -609.342
  P      338.745    1180.410    -608.500
  C      339.776    1180.743    -606.119
  O      338.728    1180.213    -606.913
  O      337.436    1180.326    -609.216
  O      339.310    1181.919    -608.694
  H      338.532    1182.480    -608.863
  H      339.595    1180.514    -605.090
  H      339.818    1181.805    -606.246
  H      340.707    1180.311    -606.422

 6  7  8  9  10  11  12  13  14  15  16  26  31  32  33  34  35 0
 6-311+G(2d,p)
 ****
 36  37 0
 6-311+G(2d,p)
 ****
 1  2  3  4  5  17  18  19  20  21  22  23  24  25 0
 3-21G
 ****
 27  28  29  30  38  39  40  41  42  43  44  45 0
 3-21G
 ****


