%nproc=1
%NoSave
%Mem=1900MB
#P OB98/GEN NMR

erre ene a

0 1
  C     -593.854      61.482     -95.784
  O     -594.856      60.494     -95.555
  P     -596.100      60.874     -94.626
  C     -596.638      58.441     -93.925
  O     -597.110      59.620     -94.580
  C     -597.332      57.193     -94.493
  O     -598.773      57.393     -94.444
  C     -597.006      56.884     -95.963
  O     -595.878      56.057     -96.241
  C     -598.239      56.093     -96.384
  O     -598.093      54.712     -95.987
  C     -599.371      56.737     -95.585
  N     -603.707      57.447     -98.219
  C     -603.218      56.378     -97.542
  N     -602.057      56.271     -96.869
  C     -601.369      57.423     -96.922
  C     -601.736      58.592     -97.561
  C     -602.964      58.579     -98.243
  N     -603.457      59.667     -98.938
  N     -600.769      59.561     -97.403
  C     -599.825      58.979     -96.689
  N     -600.147      57.689     -96.361
  O     -596.739      62.196     -94.887
  O     -595.454      60.836     -93.151
  H     -597.776      54.728     -95.066
  H     -595.852      61.548     -92.616
  H     -603.852      55.490     -97.548
  H     -598.899      59.449     -96.391
  H     -600.080      55.993     -95.195
  H     -598.388      56.092     -97.465
  H     -596.938      57.810     -96.551
  H     -597.090      56.329     -93.865
  H     -596.840      58.516     -92.849
  H     -604.323      59.559     -99.431
  H     -602.893      60.501     -99.011
  H     -595.557      58.409     -94.044
  P     -594.716      56.535     -97.235
  C     -594.097      53.994     -97.380
  O     -593.659      55.329     -97.268
  O     -594.128      57.871     -96.928
  O     -595.424      56.437     -98.669
  H     -595.617      55.523     -98.956
  H     -593.240      53.360     -97.604
  H     -594.829      53.893     -98.180
  H     -594.540      53.672     -96.432
  H     -593.094      61.079     -96.420
  H     -593.420      61.773     -94.850
  H     -594.296      62.336     -96.253

 3  4  5  6  7  8  9  10  11  12  22  25  29  30  31  32 0
 6-311+G(2d,p)
 ****
 33  36  37 0
 6-311+G(2d,p)
 ****
 1  2  13  14  15  16  17  18  19  20  21  23  24  26 0
 3-21G
 ****
 27  28  34  35  38  39  40  41  42  43  44  45  46  47  48 0
 3-21G
 ****


