%nproc=1
%NoSave
%Mem=1900MB
#P OB98/GEN NMR

erre ene a

0 1
  C       94.146      45.800    -235.560
  O       94.470      46.585    -236.691
  H       93.446      46.362    -234.934
  H       95.039      45.574    -234.972
  H       93.664      44.870    -235.874
  P       95.675      46.091    -237.631
  C       97.481      46.879    -235.961
  O       96.923      47.038    -237.263
  C       98.896      47.462    -235.897
  O       99.774      46.730    -236.779
  C       98.985      48.908    -236.359
  O       98.369      49.831    -235.486
  C      100.463      49.056    -236.690
  O      101.265      49.395    -235.563
  C      100.824      47.633    -237.180
  N      101.056      47.593    -238.619
  C      102.361      47.845    -239.029
  O      103.277      48.112    -238.254
  N      102.575      47.824    -240.380
  C      101.621      47.630    -241.337
  O      101.872      47.666    -242.535
  C      100.256      47.395    -240.843
  C      100.037      47.387    -239.525
  O       95.374      46.031    -239.098
  O       96.096      44.681    -237.002
  H      101.069      48.739    -234.866
  H       96.639      44.157    -237.637
  H      103.516      47.995    -240.697
  H       99.473      47.242    -241.575
  H       99.037      47.216    -239.136
  H      101.740      47.284    -236.685
  H      100.629      49.829    -237.445
  H       98.448      48.994    -237.312
  H       99.271      47.349    -234.874
  H       97.525      45.807    -235.747
  H       96.836      47.363    -235.220
  P       97.397      50.996    -235.986
  C       99.307      52.717    -235.598
  O       97.937      52.389    -235.389
  O       95.928      50.717    -235.933
  O       97.810      51.110    -237.540
  H       97.006      51.341    -238.042
  H       99.520      53.664    -235.148
  H       99.505      52.768    -236.648
  H       99.925      51.965    -235.154

 6  7  8  9  10  11  12  13  14  15  16  26  31  32  33  34  35 0
 6-311+G(2d,p)
 ****
 36  37 0
 6-311+G(2d,p)
 ****
 1  2  3  4  5  17  18  19  20  21  22  23  24  25 0
 3-21G
 ****
 27  28  29  30  38  39  40  41  42  43  44  45 0
 3-21G
 ****


