%nproc=1
%NoSave
%Mem=1900MB
#P OB98/GEN NMR

erre ene a

0 1
  C     -385.358    -882.361    -298.748
  O     -385.679    -881.063    -299.226
  P     -384.826    -880.480    -300.449
  C     -387.034    -879.551    -301.548
  O     -385.699    -879.302    -301.071
  C     -387.732    -878.223    -301.859
  O     -387.810    -877.417    -300.665
  C     -387.032    -877.366    -302.892
  O     -387.257    -877.823    -304.214
  C     -387.651    -875.983    -302.594
  O     -388.947    -875.881    -303.203
  C     -387.783    -876.027    -301.063
  N     -386.715    -875.304    -300.363
  C     -386.720    -873.919    -300.490
  O     -387.564    -873.306    -301.146
  N     -385.701    -873.256    -299.855
  C     -384.662    -873.839    -299.178
  O     -383.748    -873.200    -298.660
  C     -384.684    -875.302    -299.114
  C     -385.702    -875.959    -299.700
  O     -384.934    -881.683    -301.489
  O     -383.428    -880.106    -300.042
  H     -385.752    -882.196    -301.360
  H     -388.816    -875.991    -304.160
  H     -385.696    -872.245    -299.922
  H     -383.876    -875.793    -298.589
  H     -385.723    -877.044    -299.657
  H     -388.739    -875.605    -300.746
  H     -387.045    -875.160    -302.971
  H     -385.957    -877.320    -302.691
  H     -388.765    -878.446    -302.174
  H     -387.580    -880.088    -300.795
  H     -386.965    -880.171    -302.457
  P     -386.000    -877.738    -305.226
  C     -386.834    -879.676    -306.775
  O     -386.517    -878.309    -306.628
  O     -385.058    -878.899    -304.646
  O     -385.369    -876.388    -305.278
  H     -385.541    -879.702    -304.407
  H     -387.479    -879.803    -307.643
  H     -387.359    -880.058    -305.889
  H     -385.912    -880.252    -306.935
  H     -386.007    -882.613    -297.936
  H     -384.343    -882.376    -298.411
  H     -385.482    -883.073    -299.537

 3  4  5  6  7  8  9  10  11  12  13  24  28  29  30  31  32 0
 6-311+G(2d,p)
 ****
 33  34 0
 6-311+G(2d,p)
 ****
 1  2  14  15  16  17  18  19  20  21  22  23  25  26  27 0
 3-21G
 ****
 35  36  37  38  39  40  41  42  43  44  45 0
 3-21G
 ****


