%nproc=1
%NoSave
%Mem=1900MB
#P OB98/GEN NMR

erre ene a

0 1
  C      -39.627      42.696     -10.546
  O      -39.589      42.768     -11.960
  P      -40.335      41.628     -12.806
  C      -38.194      40.108     -12.891
  O      -39.551      40.260     -12.517
  C      -37.570      38.916     -12.159
  O      -37.821      39.054     -10.734
  C      -38.117      37.549     -12.591
  O      -37.030      36.617     -12.524
  C      -39.148      37.244     -11.517
  O      -39.435      35.859     -11.411
  C      -38.461      37.844     -10.285
  N      -39.383      38.128      -9.185
  C      -39.298      37.335      -8.045
  O      -38.510      36.401      -7.917
  N      -40.186      37.639      -7.044
  C      -41.167      38.585      -7.096
  O      -41.946      38.801      -6.177
  C      -41.240      39.357      -8.345
  C      -40.354      39.104      -9.310
  O      -39.906      42.018     -14.296
  O      -41.805      41.570     -12.567
  H      -39.001      42.369     -14.351
  H      -39.978      35.603     -12.178
  H      -40.118      37.101      -6.192
  H      -42.015      40.108      -8.431
  H      -40.388      39.660     -10.239
  H      -37.668      37.173      -9.934
  H      -40.081      37.769     -11.750
  H      -38.533      37.564     -13.602
  H      -36.483      38.955     -12.303
  H      -37.642      41.014     -12.630
  H      -38.131      39.976     -13.976
  P      -36.948      35.465     -13.646
  C      -38.411      33.720     -12.355
  O      -38.249      34.547     -13.486
  O      -35.785      34.549     -13.026
  O      -36.631      35.950     -15.022
  H      -35.923      34.350     -12.086
  H      -39.466      33.450     -12.264
  H      -38.102      34.230     -11.439
  H      -37.824      32.806     -12.481
  H      -39.088      43.522     -10.132
  H      -39.178      41.780     -10.223
  H      -40.644      42.732     -10.214

 3  4  5  6  7  8  9  10  11  12  13  24  28  29  30  31  32 0
 6-311+G(2d,p)
 ****
 33  34 0
 6-311+G(2d,p)
 ****
 1  2  14  15  16  17  18  19  20  21  22  23  25  26  27 0
 3-21G
 ****
 35  36  37  38  39  40  41  42  43  44  45 0
 3-21G
 ****


