%nproc=1
%NoSave
%Mem=1900MB
#P OB98/GEN NMR

erre ene a

0 1
  C      -46.757     -28.911      88.088
  O      -47.115     -27.878      88.980
  H      -45.740     -29.238      88.319
  H      -46.773     -28.537      87.061
  H      -47.429     -29.767      88.182
  P      -48.645     -27.406      89.050
  C      -48.562     -26.922      91.584
  O      -48.736     -26.382      90.281
  C      -47.090     -26.843      91.994
  O      -46.666     -25.448      91.907
  C      -46.828     -27.322      93.435
  O      -45.539     -27.945      93.481
  C      -46.799     -26.009      94.189
  O      -46.145     -26.126      95.428
  C      -46.092     -25.107      93.180
  N      -46.265     -23.696      93.511
  C      -45.203     -22.847      93.221
  O      -44.146     -23.225      92.719
  N      -45.360     -21.541      93.595
  C      -46.403     -21.037      94.314
  O      -46.454     -19.875      94.692
  C      -47.473     -21.993      94.641
  C      -47.361     -23.256      94.226
  O      -49.665     -28.495      89.069
  O      -48.815     -26.432      87.791
  H      -46.150     -25.268      95.890
  H      -49.757     -26.354      87.548
  H      -44.602     -20.911      93.381
  H      -48.308     -21.629      95.225
  H      -48.120     -23.992      94.464
  H      -45.020     -25.336      93.134
  H      -47.819     -25.661      94.381
  H      -47.590     -28.013      93.804
  H      -46.485     -27.406      91.274
  H      -48.888     -27.968      91.567
  H      -49.181     -26.367      92.295
  P      -45.347     -29.459      93.976
  C      -43.104     -29.750      92.760
  O      -43.787     -29.849      94.006
  O      -46.206     -30.451      93.258
  O      -45.745     -29.420      95.528
  H      -46.331     -30.175      95.727
  H      -42.080     -30.030      92.892
  H      -43.155     -28.742      92.404
  H      -43.564     -30.403      92.048

 6  7  8  9  10  11  12  13  14  15  16  26  31  32  33  34  35 0
 6-311+G(2d,p)
 ****
 36  37 0
 6-311+G(2d,p)
 ****
 1  2  3  4  5  17  18  19  20  21  22  23  24  25 0
 3-21G
 ****
 27  28  29  30  38  39  40  41  42  43  44  45 0
 3-21G
 ****


