%nproc=1
%NoSave
%Mem=1900MB
#P OB98/GEN NMR

erre ene a

0 1
  C     -899.420     135.939     997.405
  O     -898.050     136.203     997.194
  H     -900.000     136.567     996.729
  H     -899.700     136.177     998.430
  H     -899.650     134.883     997.182
  P     -896.960     135.276     997.923
  C     -897.140     137.086     999.756
  O     -896.300     136.179     999.073
  C     -896.320     138.033    1000.649
  O     -895.640     137.230    1001.658
  C     -895.230     138.832     999.894
  O     -895.050     140.069    1000.587
  C     -894.020     137.912    1000.081
  O     -892.810     138.515     999.726
  C     -894.220     137.530    1001.573
  N     -893.420     136.417    1002.049
  C     -892.050     136.612    1002.162
  O     -891.460     137.656    1001.882
  N     -891.330     135.535    1002.602
  C     -891.850     134.314    1002.964
  O     -891.150     133.383    1003.383
  C     -893.310     134.159    1002.820
  C     -894.020     135.224    1002.372
  O     -896.000     134.567     997.024
  O     -897.860     134.244     998.763
  H     -897.890     133.379     998.297
  H     -892.860     138.844     998.816
  H     -890.340     135.649    1002.692
  H     -893.750     133.218    1003.068
  H     -895.100     135.146    1002.270
  H     -894.050     138.412    1002.209
  H     -894.120     137.028     999.448
  H     -895.480     139.021     998.848
  H     -897.000     138.710    1001.185
  H     -897.850     136.516    1000.378
  H     -897.710     137.672     999.017
  P     -895.930     141.380    1000.290
  C     -894.230     142.280     998.556
  O     -894.930     142.528     999.758
  O     -896.810     141.813    1001.431
  O     -896.810     141.007     998.992
  H     -897.630     141.550     998.997
  H     -893.609     143.120     998.325
  H     -894.930     142.125     997.761
  H     -893.622     141.407     998.671

 6  7  8  9  10  11  12  13  14  15  16  27  31  32  33  34  35 0
 6-311+G(2d,p)
 ****
 36  37 0
 6-311+G(2d,p)
 ****
 1  2  3  4  5  17  18  19  20  21  22  23  24  25 0
 3-21G
 ****
 26  28  29  30  38  39  40  41  42  43  44  45 0
 3-21G
 ****


