%nproc=1
%NoSave
%Mem=1900MB
#P OB98/GEN NMR

erre ene a

0 1
  C      310.955     393.789      69.858
  O      310.196     392.605      69.987
  H      311.877     393.678      70.438
  H      310.393     394.635      70.260
  H      311.218     393.978      68.814
  P      308.937     392.380      69.023
  C      307.383     393.220      70.908
  O      307.789     393.370      69.554
  C      305.856     393.271      71.011
  O      305.435     394.660      70.855
  C      305.141     392.442      69.922
  O      303.934     391.902      70.475
  C      304.811     393.510      68.898
  O      303.783     393.106      68.027
  C      304.453     394.687      69.804
  N      304.450     395.947      69.073
  C      303.226     396.592      68.936
  O      302.167     396.150      69.385
  N      303.231     397.740      68.192
  C      304.297     398.236      67.497
  O      304.227     399.226      66.779
  C      305.556     397.480      67.636
  C      305.573     396.395      68.409
  O      308.498     390.963      68.837
  O      309.363     393.074      67.644
  H      303.104     392.609      68.518
  H      308.829     392.720      66.907
  H      302.350     398.227      68.091
  H      306.416     397.839      67.082
  H      306.477     395.805      68.519
  H      303.467     394.536      70.268
  H      305.691     393.738      68.290
  H      305.759     391.639      69.516
  H      305.550     392.947      72.011
  H      307.819     394.034      71.492
  H      307.756     392.262      71.297
  P      303.920     390.508      71.276
  C      303.008     388.910      69.483
  O      304.139     389.274      70.262
  O      302.749     390.343      72.190
  O      305.277     390.529      72.126
  H      305.086     390.243      73.042
  H      303.262     388.086      68.849
  H      302.706     389.742      68.882
  H      302.205     388.627      70.131

 6  7  8  9  10  11  12  13  14  15  16  26  31  32  33  34  35 0
 6-311+G(2d,p)
 ****
 36  37 0
 6-311+G(2d,p)
 ****
 1  2  3  4  5  17  18  19  20  21  22  23  24  25 0
 3-21G
 ****
 27  28  29  30  38  39  40  41  42  43  44  45 0
 3-21G
 ****


