%nproc=1
%NoSave
%Mem=1900MB
#P OB98/GEN NMR

erre ene a

0 1
  C      130.690    -248.805     185.002
  O      131.803    -249.480     184.449
  H      131.049    -247.937     185.563
  H      130.151    -249.469     185.686
  H      130.021    -248.462     184.209
  P      131.481    -250.782     183.569
  C      130.671    -251.175     181.123
  O      131.116    -250.248     182.100
  C      131.144    -250.748     179.728
  O      130.537    -249.460     179.402
  C      132.667    -250.558     179.618
  O      133.046    -250.830     178.257
  C      132.814    -249.069     179.897
  O      134.094    -248.609     179.529
  C      131.617    -248.543     179.110
  N      132.815    -243.592     178.650
  C      133.364    -244.705     178.111
  N      132.983    -245.989     178.272
  C      131.897    -246.070     179.062
  C      131.220    -245.023     179.670
  C      131.725    -243.729     179.440
  N      131.171    -242.594     179.989
  N      130.152    -245.499     180.411
  C      130.186    -246.808     180.250
  N      131.228    -247.196     179.452
  O      130.078    -251.283     184.152
  O      132.518    -251.855     183.608
  H      134.158    -247.636     179.629
  H      130.224    -251.974     184.826
  H      134.229    -244.542     177.476
  H      129.494    -247.515     180.692
  H      131.794    -248.576     178.030
  H      132.697    -248.861     180.967
  H      133.234    -251.202     180.291
  H      130.774    -251.468     178.989
  H      129.577    -251.211     181.149
  H      131.067    -252.168     181.352
  H      131.600    -241.708     179.790
  H      130.370    -242.685     180.598
  P      133.127    -252.359     177.759
  C      131.384    -254.313     177.878
  O      131.633    -252.933     177.634
  O      133.658    -253.110     179.072
  O      134.029    -252.617     176.600
  H      134.156    -253.909     178.813
  H      130.341    -254.515     177.750
  H      131.674    -254.556     178.879
  H      131.949    -254.905     177.189

 6  7  8  9  10  11  12  13  14  15  25  28  32  33  34  35 0
 6-311+G(2d,p)
 ****
 36  37  40 0
 6-311+G(2d,p)
 ****
 1  2  3  4  5  16  17  18  19  20  21  22  23  24 0
 3-21G
 ****
 26  27  29  30  31  38  39 41  42  43  44  45  46  47  48 0
 3-21G
 ****


