%nproc=1
%NoSave
%Mem=1900MB
#P OB98/GEN NMR

erre ene a

0 1
  C     -253.156      -0.286     -43.749
  O     -251.810      -0.506     -43.370
  H     -253.242       0.707     -44.189
  H     -253.799      -0.338     -42.864
  H     -253.476      -1.028     -44.491
  P     -251.392      -2.014     -43.012
  C     -248.884      -1.846     -43.675
  O     -249.833      -1.973     -42.624
  C     -247.608      -1.189     -43.156
  O     -247.851       0.185     -42.805
  C     -247.016      -1.856     -41.918
  O     -246.214      -2.984     -42.255
  C     -246.162      -0.726     -41.369
  O     -244.944      -0.619     -42.142
  C     -247.053       0.501     -41.630
  N     -247.370       2.606     -37.023
  C     -246.262       2.372     -37.814
  N     -245.066       2.747     -37.304
  N     -246.317       1.819     -39.001
  C     -247.574       1.473     -39.373
  C     -248.751       1.646     -38.668
  C     -248.673       2.275     -37.370
  O     -249.628       2.511     -36.630
  N     -249.829       1.172     -39.368
  C     -249.306       0.692     -40.480
  N     -247.938       0.848     -40.528
  O     -251.410      -2.736     -44.442
  O     -252.290      -2.710     -42.041
  H     -244.460       0.157     -41.808
  H     -252.229      -3.260     -44.520
  H     -247.272       3.024     -36.111
  H     -249.868       0.231     -41.279
  H     -246.464       1.402     -41.862
  H     -245.866      -0.882     -40.332
  H     -244.951       3.160     -36.388
  H     -247.796      -2.117     -41.185
  H     -244.241       2.589     -37.869
  H     -246.877      -1.188     -43.978
  H     -249.315      -1.228     -44.468
  H     -248.664      -2.840     -44.073
  P     -246.315      -4.290     -41.329
  C     -246.360      -5.957     -43.314
  O     -245.668      -5.505     -42.162
  O     -247.882      -4.617     -41.348
  O     -245.810      -4.122     -39.934
  H     -248.270      -4.453     -40.464
  H     -245.817      -6.762     -43.763
  H     -246.450      -5.153     -44.014
  H     -247.335      -6.297     -43.034

 6  7  8  9  10  11  12  13  14  15  26  29  33  34 0
 6-311+G(2d,p)
 ****
 36  38  39  40  41 0
 6-311+G(2d,p)
 ****
 1  2  3  4  5  16  17  18  19  20  21  22  23  24  25 0
 3-21G
 ****
 27  28  30  31  32  35  37  42  43  44  45  46  47 0
 3-21G
 ****
 48  49 0
 3-21G
 ****


