%nproc=1
%NoSave
%Mem=1900MB
#P OB98/GEN NMR

erre ene a

0 1
  C     -810.522     248.438    -893.580
  O     -811.349     247.305    -893.760
  H     -810.239     248.836    -894.560
  H     -809.611     248.158    -893.050
  H     -811.040     249.218    -893.020
  P     -812.008     246.657    -892.460
  C     -814.454     247.182    -893.160
  O     -813.407     247.408    -892.220
  C     -814.494     248.325    -894.190
  O     -813.183     248.442    -894.830
  C     -815.535     248.105    -895.310
  O     -816.134     249.370    -895.630
  C     -814.701     247.626    -896.480
  O     -815.311     247.892    -897.740
  C     -813.373     248.373    -896.240
  N     -812.246     247.690    -896.890
  C     -812.003     248.026    -898.220
  O     -812.711     248.870    -898.800
  N     -810.994     247.388    -898.890
  C     -810.370     246.414    -898.310
  N     -809.392     245.791    -899.060
  C     -810.637     245.964    -896.940
  C     -811.575     246.636    -896.290
  O     -811.090     247.198    -891.270
  O     -812.099     245.159    -892.460
  H     -814.657     247.659    -898.440
  H     -811.046     246.565    -890.530
  H     -810.089     245.132    -896.500
  H     -811.859     246.379    -895.270
  H     -813.435     249.395    -896.610
  H     -814.549     246.551    -896.400
  H     -816.309     247.390    -895.020
  H     -814.687     249.269    -893.660
  H     -809.237     246.115    -900.000
  H     -815.393     247.157    -892.630
  H     -808.865     244.991    -898.710
  H     -814.291     246.221    -893.660
  P     -817.535     249.706    -894.920
  C     -817.021     252.197    -894.290
  O     -817.273     250.866    -893.820
  O     -817.814     248.404    -894.010
  O     -818.647     249.962    -895.890
  H     -818.551     247.884    -894.420
  H     -816.868     252.847    -893.454
  H     -817.860     252.539    -894.859
  H     -816.147     252.198    -894.907

 6  7  8  9  10  11  12  13  14  15  16  26  30  31  32  33  35 0
 6-311+G(2d,p)
 ****
 37  38 0
 6-311+G(2d,p)
 ****
 1  2  3  4  5  17  18  19  20  21  22  23  24  25 0
 3-21G
 ****
 27  28  29  34  36  39  40  41  42  43  44  45  46 0
 3-21G
 ****


