%nproc=1
%NoSave
%Mem=1900MB
#P OB98/GEN NMR

erre ene a

0 1
  C     -873.016    1329.279    -118.425
  O     -872.657    1328.973    -119.775
  P     -871.537    1329.814    -120.557
  C     -873.236    1330.511    -122.347
  O     -872.343    1330.962    -121.334
  C     -872.919    1331.229    -123.671
  O     -872.944    1332.662    -123.435
  C     -871.559    1330.956    -124.275
  O     -871.499    1329.778    -125.082
  C     -871.396    1332.164    -125.174
  O     -872.137    1332.003    -126.381
  C     -871.995    1333.286    -124.323
  N     -868.030    1336.540    -124.549
  C     -868.858    1336.036    -125.502
  N     -869.861    1335.139    -125.356
  C     -870.045    1334.842    -124.076
  C     -869.320    1335.272    -122.984
  C     -868.282    1336.186    -123.255
  N     -867.447    1336.710    -122.270
  N     -869.779    1334.707    -121.811
  C     -870.791    1333.961    -122.194
  N     -871.004    1334.025    -123.545
  O     -870.609    1328.988    -121.389
  O     -870.793    1330.624    -119.401
  H     -871.764    1331.232    -126.863
  H     -869.909    1330.957    -119.731
  H     -868.647    1336.373    -126.537
  H     -871.399    1333.358    -121.517
  H     -872.552    1334.028    -124.927
  H     -870.353    1332.339    -125.469
  H     -870.768    1330.964    -123.516
  H     -873.721    1330.998    -124.380
  H     -874.256    1330.779    -122.040
  H     -866.809    1337.443    -122.566
  H     -867.711    1336.571    -121.322
  H     -873.168    1329.435    -122.475
  P     -870.591    1328.555    -124.516
  C     -868.112    1329.348    -124.500
  O     -869.337    1329.243    -123.804
  O     -870.304    1327.522    -125.530
  O     -871.472    1328.009    -123.288
  H     -871.538    1328.616    -122.528
  H     -867.419    1329.983    -123.909
  H     -868.240    1329.808    -125.472
  H     -867.647    1328.365    -124.619
  H     -873.777    1328.602    -118.096
  H     -873.384    1330.282    -118.373
  H     -872.156    1329.182    -117.796

 3  4  5  6  7  8  9  10  11  12  22  25  29  30  31  32 0
 6-311+G(2d,p)
 ****
 33  36  37 0
 6-311+G(2d,p)
 ****
 1  2  13  14  15  16  17  18  19  20  21  23  24  26 0
 3-21G
 ****
 27  28  34  35  38  39  40  41  42  43  44  45  46  47  48 0
 3-21G
 ****


