%nproc=1
%NoSave
%Mem=1900MB
#P OB98/GEN NMR

erre ene a

0 1
  C      222.389     450.712     546.206
  O      221.479     449.602     546.241
  P      221.663     448.309     545.312
  C      219.142     447.824     545.043
  O      220.402     447.345     545.514
  C      217.998     446.867     545.384
  O      218.346     445.512     545.040
  C      217.632     446.826     546.872
  O      216.830     447.943     547.209
  C      216.919     445.479     546.963
  O      215.559     445.590     546.509
  C      217.737     444.622     545.980
  N      218.570     440.489     548.897
  C      217.438     441.014     548.375
  N      217.295     442.120     547.609
  C      218.493     442.686     547.382
  C      219.734     442.281     547.857
  C      219.750     441.113     548.643
  N      220.901     440.593     549.189
  N      220.731     443.133     547.429
  C      220.108     444.032     546.696
  N      218.750     443.823     546.643
  O      222.985     447.634     545.454
  O      221.463     448.857     543.808
  H      215.086     446.171     547.128
  H      221.968     448.306     543.189
  H      216.526     440.467     548.589
  H      220.590     444.869     546.204
  H      217.093     443.935     545.411
  H      216.891     445.080     547.979
  H      218.531     446.799     547.480
  H      217.124     447.151     544.785
  H      219.205     447.957     543.959
  H      220.822     439.783     549.781
  H      221.777     441.087     549.058
  H      218.953     448.805     545.500
  P      217.084     448.712     548.592
  C      214.588     449.284     548.900
  O      215.915     449.805     548.746
  O      218.456     449.240     548.794
  O      216.699     447.626     549.705
  H      217.236     447.789     550.517
  H      214.200     448.999     547.919
  H      213.963     450.071     549.324
  H      214.586     448.418     549.573
  H      222.071     451.456     546.906
  H      222.403     451.131     545.222
  H      223.371     450.376     546.464

 3  4  5  6  7  8  9  10  11  12  22  25  29  30  31  32 0
 6-311+G(2d,p)
 ****
 33  36  37 0
 6-311+G(2d,p)
 ****
 1  2  13  14  15  16  17  18  19  20  21  23  24  26 0
 3-21G
 ****
 27  28  34  35  38  39  40  41  42  43  44  45  46  47  48 0
 3-21G
 ****


