%nproc=1
%NoSave
%Mem=1900MB
#P OB98/GEN NMR

erre ene a

0 1
  C      588.921     994.755    -307.999
  O      587.645     994.787    -308.650
  P      586.668     993.530    -308.502
  C      585.141     994.570    -306.693
  O      586.020     993.522    -307.036
  C      584.922     994.628    -305.171
  O      586.189     994.823    -304.487
  C      584.053     995.796    -304.729
  O      582.687     995.728    -305.063
  C      584.401     995.909    -303.245
  O      583.661     994.972    -302.457
  C      585.909     995.540    -303.259
  N      586.775     996.700    -303.104
  C      587.129     997.070    -301.822
  O      586.706     996.487    -300.812
  N      587.952     998.160    -301.696
  C      588.412     998.929    -302.707
  O      589.128     999.910    -302.559
  C      587.994     998.499    -304.063
  C      587.212     997.432    -304.207
  O      587.193     992.219    -308.983
  O      585.398     993.979    -309.412
  H      582.771     995.319    -302.334
  H      585.104     993.190    -309.909
  H      588.202     998.423    -300.746
  H      588.345     999.103    -304.916
  H      586.891     997.100    -305.190
  H      586.142     994.850    -302.430
  H      584.186     996.907    -302.866
  H      584.434     996.708    -305.212
  H      584.526     993.661    -304.854
  H      584.186     994.435    -307.202
  H      585.541     995.530    -307.073
  P      582.054     996.453    -306.373
  C      581.129     994.247    -307.363
  O      581.958     995.362    -307.547
  O      582.589     997.801    -306.715
  O      580.511     996.592    -305.929
  H      580.170     997.405    -306.323
  H      581.202     993.614    -308.264
  H      580.089     994.560    -307.254
  H      581.443     993.658    -306.490
  H      589.446     995.666    -308.198
  H      589.490     993.928    -308.369
  H      588.780     994.647    -306.944

 3  4  5  6  7  8  9  10  11  12  13  23  28  29  30  31  32 0
 6-311+G(2d,p)
 ****
 33  34 0
 6-311+G(2d,p)
 ****
 1  2  14  15  16  17  18  19  20  21  22  24  25  26  27 0
 3-21G
 ****
 35  36  37  38  39  40  41  42  43  44  45 0
 3-21G
 ****


