%nproc=1
%NoSave
%Mem=1900MB
#P OB98/GEN NMR

erre ene a

0 1
  C      -55.907     -99.679     -74.300
  O      -55.008    -100.715     -73.966
  H      -56.904     -99.950     -73.940
  H      -55.953     -99.557     -75.387
  H      -55.611     -98.737     -73.832
  P      -53.441    -100.493     -74.220
  C      -51.423    -101.599     -73.043
  O      -52.690    -101.792     -73.660
  C      -50.983    -102.871     -72.302
  O      -51.871    -103.072     -71.157
  C      -51.042    -104.157     -73.157
  O      -50.013    -105.034     -72.666
  C      -52.426    -104.673     -72.803
  O      -52.640    -105.987     -73.243
  C      -52.413    -104.412     -71.294
  N      -53.709    -104.504     -70.628
  C      -54.082    -105.748     -70.124
  O      -53.402    -106.770     -70.189
  N      -55.315    -105.793     -69.516
  C      -56.173    -104.741     -69.356
  O      -57.250    -104.839     -68.774
  C      -55.722    -103.461     -69.916
  C      -54.530    -103.403     -70.513
  O      -52.885     -99.190     -73.747
  O      -53.289    -100.655     -75.809
  H      -53.215     -99.772     -76.222
  H      -53.515    -106.297     -72.920
  H      -55.602    -106.681     -69.139
  H      -56.384    -102.606     -69.819
  H      -54.166    -102.464     -70.928
  H      -51.707    -105.090     -70.804
  H      -53.188    -104.060     -73.298
  H      -50.883    -103.972     -74.225
  H      -49.971    -102.710     -71.898
  H      -51.515    -100.771     -72.330
  H      -50.689    -101.338     -73.805
  P      -48.695    -105.404     -73.499
  C      -46.333    -106.176     -72.769
  O      -47.739    -106.285     -72.558
  O      -48.007    -104.224     -74.113
  O      -49.178    -106.438     -74.624
  H      -48.582    -106.387     -75.392
  H      -45.818    -106.812     -72.079
  H      -46.027    -105.162     -72.616
  H      -46.099    -106.472     -73.770

 6  7  8  9  10  11  12  13  14  15  16  27  31  32  33  34  35 0
 6-311+G(2d,p)
 ****
 36  37 0
 6-311+G(2d,p)
 ****
 1  2  3  4  5  17  18  19  20  21  22  23  24  25 0
 3-21G
 ****
 26  28  29  30  38  39  40  41  42  43  44  45 0
 3-21G
 ****


