%nproc=1
%NoSave
%Mem=1900MB
#P OB98/GEN NMR

erre ene a

0 1
  C      183.722     -26.892    -127.558
  O      183.210     -25.974    -126.612
  H      184.436     -26.370    -128.201
  H      182.913     -27.291    -128.179
  H      184.239     -27.708    -127.045
  P      182.109     -26.537    -125.588
  C      179.642     -27.225    -125.869
  O      180.737     -26.509    -126.427
  C      178.413     -27.112    -126.774
  O      178.017     -25.717    -126.841
  C      178.665     -27.593    -128.206
  O      177.502     -28.268    -128.686
  C      178.865     -26.304    -128.985
  O      178.549     -26.450    -130.368
  C      177.953     -25.338    -128.227
  N      177.299     -21.115    -131.016
  C      176.642     -22.294    -130.996
  N      176.872     -23.366    -130.202
  C      177.871     -23.111    -129.338
  C      178.636     -21.961    -129.245
  C      178.318     -20.924    -130.142
  N      179.000     -19.729    -130.190
  N      179.597     -22.096    -128.261
  C      179.408     -23.305    -127.761
  N      178.387     -23.961    -128.393
  O      182.058     -25.865    -124.257
  O      182.464     -28.096    -125.557
  H      178.557     -25.561    -130.782
  H      182.639     -28.442    -126.453
  H      175.828     -22.396    -131.709
  H      179.986     -23.751    -126.958
  H      176.910     -25.395    -128.559
  H      179.912     -25.988    -128.911
  H      179.530     -28.251    -128.279
  H      177.583     -27.655    -126.309
  H      179.400     -26.833    -124.874
  H      178.697     -19.036    -130.857
  H      179.752     -19.563    -129.534
  H      179.941     -28.274    -125.765
  P      177.611     -29.832    -129.028
  C      178.616     -31.318    -130.885
  O      178.520     -30.006    -130.339
  O      176.328     -30.589    -129.030
  O      178.584     -30.369    -127.869
  H      178.289     -31.259    -127.594
  H      179.246     -31.299    -131.750
  H      177.641     -31.662    -131.161
  H      179.033     -31.979    -130.154

 6  7  8  9  10  11  12  13  14  15  25  28  32  33  34  35 0
 6-311+G(2d,p)
 ****
 36  39  40 0
 6-311+G(2d,p)
 ****
 1  2  3  4  5  16  17  18  19  20  21  22  23  24 0
 3-21G
 ****
 26  27  29  30  31  37  38  41  42  43  44  45  46  47 0
 3-21G
 ****
 48 0
 3-21G
 ****


