%nproc=1
%NoSave
%Mem=1900MB
#P OB98/GEN NMR

erre ene a

0 1
  C      -67.676     220.654    -134.498
  O      -68.651     221.673    -134.593
  H      -67.497     220.243    -135.494
  H      -68.049     219.855    -133.852
  H      -66.735     221.047    -134.102
  P      -68.787     222.678    -133.350
  C      -66.629     224.042    -132.885
  O      -67.814     223.920    -133.656
  C      -66.407     225.498    -132.476
  O      -66.466     226.332    -133.675
  C      -67.449     226.038    -131.482
  O      -66.797     226.933    -130.569
  C      -68.369     226.855    -132.370
  O      -69.077     227.855    -131.644
  C      -67.370     227.412    -133.378
  N      -68.540     231.617    -135.855
  C      -67.693     231.413    -134.783
  N      -67.110     232.504    -134.244
  N      -67.441     230.234    -134.278
  C      -68.075     229.226    -134.925
  C      -68.938     229.296    -135.990
  C      -69.225     230.609    -136.531
  O      -69.980     230.857    -137.463
  N      -69.421     228.053    -136.315
  C      -68.863     227.237    -135.434
  N      -68.041     227.904    -134.569
  O      -68.032     221.888    -132.179
  O      -70.183     223.038    -132.970
  H      -68.422     228.437    -131.208
  H      -68.679     221.385    -131.649
  H      -68.712     232.549    -136.195
  H      -69.038     226.173    -135.369
  H      -66.786     228.248    -132.974
  H      -69.099     226.198    -132.858
  H      -67.231     233.440    -134.597
  H      -67.975     225.259    -130.923
  H      -66.454     232.364    -133.484
  H      -65.393     225.598    -132.067
  H      -65.774     223.706    -133.482
  H      -66.709     223.407    -131.998
  P      -67.048     226.725    -129.001
  C      -65.940     225.407    -127.048
  O      -65.962     225.687    -128.440
  O      -68.412     225.885    -128.962
  O      -67.169     227.999    -128.233
  H      -68.936     226.140    -128.180
  H      -65.164     224.701    -126.838
  H      -66.883     224.998    -126.751
  H      -65.756     226.311    -126.505

 6  7  8  9  10  11  12  13  14  15  26  29  33  34 0
 6-311+G(2d,p)
 ****
 36  38  39  40  41 0
 6-311+G(2d,p)
 ****
 1  2  3  4  5  16  17  18  19  20  21  22  23  24  25 0
 3-21G
 ****
 27  28  30  31  32  35  37  42  43  44  45  46  47 0
 3-21G
 ****
 48  49 0
 3-21G
 ****


