%nproc=1
%NoSave
%Mem=1900MB
#P OB98/GEN NMR

erre ene a

0 1
  C      224.330     -27.002     218.264
  O      225.163     -28.100     217.897
  P      225.212     -28.538     216.356
  C      226.975     -26.953     215.336
  O      226.692     -28.272     215.795
  C      227.956     -26.992     214.153
  O      228.027     -25.666     213.559
  C      229.399     -27.357     214.521
  O      229.766     -28.734     214.524
  C      230.174     -26.702     213.379
  O      230.173     -27.571     212.230
  C      229.365     -25.445     213.069
  N      232.837     -21.726     212.531
  C      232.513     -22.778     211.748
  N      231.576     -23.723     211.967
  C      230.928     -23.498     213.120
  C      231.148     -22.467     214.018
  C      232.158     -21.547     213.690
  N      232.496     -20.482     214.490
  N      230.295     -22.570     215.096
  C      229.586     -23.657     214.861
  N      229.922     -24.245     213.673
  O      224.100     -28.038     215.498
  O      225.174     -30.140     216.453
  H      230.586     -28.408     212.515
  H      224.635     -30.489     215.716
  H      233.083     -22.875     210.829
  H      228.824     -24.051     215.519
  H      229.291     -25.253     211.993
  H      231.222     -26.522     213.635
  H      229.687     -26.899     215.474
  H      227.577     -27.686     213.393
  H      227.406     -26.367     216.152
  H      233.263     -19.896     214.203
  H      232.040     -20.369     215.383
  H      226.026     -26.485     215.077
  P      230.403     -29.426     215.820
  C      228.420     -29.332     217.524
  O      229.171     -30.090     216.602
  O      231.259     -28.539     216.655
  O      231.160     -30.691     215.203
  H      230.573     -31.374     214.839
  H      227.513     -29.891     217.780
  H      228.134     -28.370     217.096
  H      229.004     -29.177     218.436
  H      224.405     -26.834     219.318
  H      223.315     -27.224     218.010
  H      224.645     -26.124     217.740

 3  4  5  6  7  8  9  10  11  12  22  25  29  30  31  32 0
 6-311+G(2d,p)
 ****
 33  36  37 0
 6-311+G(2d,p)
 ****
 1  2  13  14  15  16  17  18  19  20  21  23  24  26 0
 3-21G
 ****
 27  28  34  35  38  39  40  41  42  43  44  45  46  47  48 0
 3-21G
 ****


