%nproc=1
%NoSave
%Mem=1900MB
#P OB98/GEN NMR

erre ene a

0 1
  C      213.176    -458.091     121.677
  O      212.807    -459.454     121.691
  H      214.007    -457.962     120.978
  H      213.503    -457.783     122.673
  H      212.341    -457.468     121.344
  P      211.469    -459.828     122.500
  C      209.822    -460.051     120.497
  O      210.238    -459.283     121.620
  C      208.446    -460.654     120.752
  O      208.531    -461.706     121.744
  C      207.416    -459.661     121.272
  O      206.824    -458.910     120.218
  C      206.403    -460.613     121.899
  O      205.600    -461.220     120.871
  C      207.317    -461.659     122.547
  N      206.270    -462.637     127.410
  C      205.675    -463.126     126.261
  N      204.651    -463.986     126.431
  N      206.053    -462.791     125.054
  C      207.079    -461.913     125.037
  C      207.746    -461.365     126.105
  C      207.332    -461.743     127.440
  O      207.837    -461.365     128.488
  N      208.751    -460.519     125.693
  C      208.671    -460.539     124.381
  N      207.674    -461.363     123.932
  O      211.498    -458.827     123.752
  O      211.363    -461.246     122.946
  H      204.934    -461.770     121.325
  H      211.128    -459.285     124.531
  H      205.930    -462.920     128.316
  H      209.315    -459.979     123.716
  H      206.876    -462.661     122.535
  H      205.719    -460.110     122.581
  H      204.281    -464.248     127.329
  H      207.836    -459.018     122.052
  H      204.217    -464.385     125.601
  H      208.101    -461.119     119.818
  H      210.549    -460.858     120.331
  H      209.800    -459.412     119.612
  P      206.140    -457.505     120.605
  C      208.276    -456.180     119.943
  O      207.356    -456.523     120.973
  O      205.470    -457.809     122.019
  O      205.159    -456.993     119.605
  H      204.733    -457.180     122.182
  H      209.024    -455.524     120.337
  H      207.755    -455.689     119.148
  H      208.741    -457.068     119.570

 6  7  8  9  10  11  12  13  14  15  26  29  33  34 0
 6-311+G(2d,p)
 ****
 36  38  39  40  41 0
 6-311+G(2d,p)
 ****
 1  2  3  4  5  16  17  18  19  20  21  22  23  24  25 0
 3-21G
 ****
 27  28  30  31  32  35  37  42  43  44  45  46  47 0
 3-21G
 ****
 48  49 0
 3-21G
 ****


