%nproc=1
%NoSave
%Mem=1900MB
#P OB98/GEN NMR

erre ene a

0 1
  C      -63.572     -77.638     157.093
  O      -62.807     -77.635     155.904
  H      -64.405     -76.940     156.978
  H      -62.955     -77.315     157.935
  H      -63.971     -78.637     157.288
  P      -61.594     -78.679     155.814
  C      -62.777     -80.902     155.149
  O      -62.025     -79.776     154.722
  C      -63.138     -81.772     153.943
  O      -64.134     -81.071     153.149
  C      -61.944     -82.064     153.027
  O      -62.064     -83.394     152.513
  C      -62.115     -81.060     151.901
  O      -61.477     -81.443     150.691
  C      -63.642     -80.999     151.794
  N      -64.111     -79.781     151.137
  C      -63.886     -79.664     149.770
  O      -63.388     -80.540     149.063
  N      -64.258     -78.468     149.210
  C      -64.796     -77.402     149.869
  O      -65.087     -76.349     149.314
  C      -65.002     -77.582     151.313
  C      -64.655     -78.744     151.872
  O      -61.694     -79.481     157.196
  O      -60.244     -78.085     155.592
  H      -61.154     -79.046     157.883
  H      -61.728     -80.796     149.999
  H      -64.103     -78.367     148.218
  H      -65.419     -76.755     151.871
  H      -64.780     -78.905     152.937
  H      -64.023     -81.879     151.260
  H      -61.709     -80.086     152.203
  H      -60.982     -81.949     153.531
  H      -63.602     -82.699     154.298
  H      -63.696     -80.557     155.633
  H      -62.188     -81.479     155.870
  P      -61.070     -84.508     153.107
  C      -62.505     -86.090     154.616
  O      -61.968     -85.821     153.333
  O      -60.808     -83.946     154.578
  O      -59.848     -84.702     152.273
  H      -61.590     -83.529     154.980
  H      -63.071     -86.997     154.583
  H      -63.142     -85.283     154.913
  H      -61.708     -86.193     155.322

 6  7  8  9  10  11  12  13  14  15  16  27  31  32  33  34  35 0
 6-311+G(2d,p)
 ****
 36  37 0
 6-311+G(2d,p)
 ****
 1  2  3  4  5  17  18  19  20  21  22  23  24  25 0
 3-21G
 ****
 26  28  29  30  38  39  40  41  42  43  44  45 0
 3-21G
 ****


