%nproc=1
%NoSave
%Mem=1900MB
#P OB98/GEN NMR

erre ene a

0 1
  C       18.275    -171.131     155.675
  O       18.918    -170.138     154.898
  H       17.523    -171.627     155.055
  H       17.778    -170.673     156.534
  H       19.001    -171.873     156.012
  P       20.082    -169.306     155.624
  C       18.526    -168.118     157.319
  O       19.346    -167.987     156.164
  C       18.576    -166.845     158.157
  O       17.640    -166.918     159.247
  C       19.932    -166.564     158.794
  O       20.815    -165.966     157.860
  C       19.533    -165.593     159.895
  O       19.355    -164.274     159.340
  C       18.175    -166.151     160.360
  N       17.455    -166.397     165.437
  C       17.479    -165.351     164.582
  N       17.719    -165.356     163.254
  C       17.951    -166.603     162.816
  C       17.960    -167.768     163.569
  C       17.686    -167.635     164.941
  N       17.652    -168.707     165.807
  N       18.240    -168.861     162.775
  C       18.345    -168.372     161.557
  N       18.215    -167.005     161.533
  O       21.320    -169.092     154.825
  O       20.277    -170.161     156.965
  H       19.130    -163.674     160.076
  H       19.418    -170.477     157.297
  H       17.276    -164.379     165.025
  H       18.498    -168.961     160.660
  H       17.461    -165.351     160.581
  H       20.295    -165.510     160.672
  H       20.354    -167.466     159.249
  H       18.265    -166.009     157.517
  H       18.851    -168.975     157.921
  H       17.621    -168.506     166.793
  H       17.948    -169.607     165.458
  H       17.504    -168.306     156.976
  P       22.403    -166.058     158.064
  C       22.266    -163.528     158.502
  O       22.979    -164.575     157.852
  O       23.083    -167.108     157.254
  O       22.595    -166.300     159.632
  H       23.331    -166.921     159.792
  H       22.738    -162.591     158.291
  H       22.267    -163.698     159.558
  H       21.258    -163.508     158.145

 6  7  8  9  10  11  12  13  14  15  25  28  32  33  34  35 0
 6-311+G(2d,p)
 ****
 36  39  40 0
 6-311+G(2d,p)
 ****
 1  2  3  4  5  16  17  18  19  20  21  22  23  24 0
 3-21G
 ****
 26  27  29  30  31  37  38  41  42  43  44  45  46  47 0
 3-21G
 ****
 48 0
 3-21G
 ****


