%nproc=1
%NoSave
%Mem=1900MB
#P OB98/GEN NMR

erre ene a

0 1
  C      152.823     233.195      14.440
  O      153.938     232.769      15.200
  P      154.462     231.250      15.124
  C      156.254     229.948      16.439
  O      155.797     231.231      16.014
  C      157.526     230.088      17.279
  O      158.587     230.578      16.422
  C      157.444     231.081      18.440
  O      156.881     230.559      19.636
  C      158.931     231.368      18.665
  O      159.519     230.287      19.411
  C      159.479     231.394      17.234
  N      162.385     235.578      16.735
  C      162.620     234.375      17.317
  N      161.785     233.324      17.429
  C      160.616     233.577      16.813
  C      160.232     234.749      16.170
  C      161.185     235.782      16.143
  N      160.953     237.002      15.525
  N      158.945     234.636      15.679
  C      158.564     233.421      16.003
  N      159.538     232.733      16.683
  O      154.598     230.713      13.740
  O      153.424     230.427      16.018
  H      159.136     230.319      20.312
  H      153.502     229.471      15.816
  H      163.600     234.252      17.763
  H      157.605     232.991      15.778
  H      160.479     230.950      17.162
  H      159.108     232.287      19.239
  H      156.943     232.014      18.137
  H      157.811     229.090      17.642
  H      156.482     229.350      15.545
  H      161.731     237.631      15.443
  H      160.125     237.093      14.948
  H      155.458     229.444      16.996
  P      156.585     231.603      20.829
  C      155.328     231.347      23.116
  O      155.561     230.861      21.807
  O      156.174     232.962      20.373
  O      157.955     231.585      21.660
  H      158.158     230.742      22.113
  H      154.484     230.807      23.550
  H      155.087     232.411      23.101
  H      156.213     231.173      23.737
  H      152.637     234.231      14.630
  H      151.963     232.622      14.716
  H      153.026     233.054      13.399

 3  4  5  6  7  8  9  10  11  12  22  25  29  30  31  32 0
 6-311+G(2d,p)
 ****
 33  36  37 0
 6-311+G(2d,p)
 ****
 1  2  13  14  15  16  17  18  19  20  21  23  24  26 0
 3-21G
 ****
 27  28  34  35  38  39  40  41  42  43  44  45  46  47  48 0
 3-21G
 ****


