%nproc=1
%NoSave
%Mem=1900MB
#P OB98/GEN NMR

erre ene a

0 1
  C     -317.791      70.780     985.125
  O     -317.993      69.877     986.210
  P     -319.513      69.733     986.752
  C     -319.534      67.159     986.286
  O     -319.696      68.199     987.248
  C     -319.325      65.814     987.000
  O     -317.964      65.674     987.459
  C     -320.195      65.621     988.239
  O     -321.523      65.249     987.908
  C     -319.463      64.483     988.932
  O     -319.869      63.219     988.369
  C     -317.992      64.784     988.593
  N     -314.240      64.290     991.994
  C     -314.693      63.403     991.019
  N     -314.031      62.217     990.938
  N     -315.693      63.642     990.224
  C     -316.244      64.876     990.402
  C     -315.896      65.835     991.316
  C     -314.790      65.539     992.230
  O     -314.377      66.269     993.129
  N     -316.672      66.953     991.202
  C     -317.479      66.684     990.203
  N     -317.276      65.428     989.679
  O     -320.381      69.788     985.409
  O     -319.914      70.793     987.721
  H     -319.598      63.236     987.421
  H     -321.272      70.126     985.595
  H     -313.470      64.037     992.587
  H     -318.213      67.381     989.787
  H     -317.446      63.872     988.310
  H     -319.679      64.423     990.000
  H     -313.209      61.988     991.476
  H     -320.184      66.521     988.884
  H     -314.315      61.575     990.220
  H     -319.543      65.012     986.256
  H     -318.672      67.365     985.651
  H     -320.419      67.131     985.635
  P     -322.629      65.336     989.093
  C     -324.192      67.098     987.981
  O     -323.987      65.754     988.358
  O     -322.211      66.662     989.878
  O     -322.694      64.137     989.955
  H     -322.473      66.594     990.825
  H     -323.281      67.528     987.548
  H     -324.492      67.680     988.860
  H     -325.001      67.161     987.245
  H     -316.755      70.790     984.857
  H     -318.093      71.764     985.419
  H     -318.374      70.464     984.285

 3  4  5  6  7  8  9  10  11  12  23  26  30  31  33  0
 6-311+G(2d,p)
 ****
 35  36  37  38 0
 6-311+G(2d,p)
 ****
 1  2  13  14  15  16  17  18  19  20  21  22  24  25  27  28  29 0
 3-21G
 ****
 32  34  39  40  41  42  43  44  45  46  47  48  49 0
 3-21G
 ****


