%nproc=1
%NoSave
%Mem=1900MB
#P OB98/GEN NMR

erre ene a

0 1
  C      240.723     151.248     140.690
  O      240.943     150.288     139.671
  P      240.764     148.714     139.946
  C      238.554     148.749     138.603
  O      239.188     148.442     139.833
  C      237.661     147.588     138.161
  O      238.490     146.409     137.977
  C      236.555     147.223     139.162
  O      235.417     146.804     138.401
  C      237.154     146.055     139.917
  O      236.168     145.242     140.540
  C      237.941     145.361     138.799
  N      238.993     144.490     139.312
  C      238.813     143.112     139.188
  O      237.790     142.649     138.684
  N      239.804     142.276     139.641
  C      240.842     142.771     140.243
  N      241.822     141.906     140.620
  C      241.019     144.214     140.492
  C      240.078     145.005     139.985
  O      241.393     148.224     141.203
  O      241.318     148.018     138.620
  H      235.492     145.826     140.932
  H      242.299     147.886     138.636
  H      241.887     144.574     141.024
  H      240.136     146.079     140.098
  H      237.262     144.784     138.161
  H      237.824     146.427     140.697
  H      236.271     148.063     139.803
  H      237.227     147.837     137.186
  H      241.746     140.954     140.278
  H      239.327     148.907     137.846
  H      242.769     142.231     140.786
  H      237.975     149.673     138.706
  P      233.961     147.284     138.880
  C      233.853     149.522     137.575
  O      233.925     148.885     138.831
  O      234.033     147.002     140.460
  O      232.795     146.563     138.289
  H      233.130     146.863     140.799
  H      233.830     150.605     137.733
  H      232.940     149.231     137.048
  H      234.726     149.277     136.967
  H      240.895     152.229     140.299
  H      241.394     151.065     141.503
  H      239.714     151.175     141.037

 3  4  5  6  7  8  9  10  11  12  13  23  27  28  29  30  32 0
 6-311+G(2d,p)
 ****
 34  35 0
 6-311+G(2d,p)
 ****
 1  2  14  15  16  17  18  19  20  21  22  24  25  26 0
 3-21G
 ****
 31  33  36  37  38  39  40  41  42  43  44  45  46 0
 3-21G
 ****


