%nproc=1
%NoSave
%Mem=1900MB
#P OB98/GEN NMR

erre ene a

0 1
  C     -466.676    -491.160     177.630
  O     -467.830    -491.718     178.244
  P     -468.596    -490.813     179.324
  C     -471.092    -490.479     179.978
  O     -470.157    -491.072     179.084
  C     -472.424    -490.242     179.276
  O     -472.271    -489.274     178.224
  C     -473.005    -491.484     178.612
  O     -473.594    -492.337     179.578
  C     -474.004    -490.870     177.641
  O     -475.270    -490.638     178.276
  C     -473.321    -489.529     177.260
  N     -472.805    -489.531     175.902
  C     -473.728    -489.204     174.900
  O     -474.901    -488.963     175.198
  N     -473.313    -489.207     173.592
  C     -472.074    -489.510     173.312
  N     -471.717    -489.488     172.002
  C     -471.081    -489.874     174.340
  C     -471.511    -489.877     175.600
  O     -468.376    -489.325     178.782
  O     -468.119    -490.978     180.731
  H     -475.809    -490.156     177.617
  H     -468.417    -488.679     179.510
  H     -470.070    -490.118     174.046
  H     -470.839    -490.130     176.412
  H     -474.030    -488.700     177.356
  H     -474.191    -491.522     176.781
  H     -472.227    -492.018     178.060
  H     -473.137    -489.832     180.011
  H     -472.426    -489.236     171.320
  H     -470.698    -489.514     180.321
  H     -470.783    -489.684     171.678
  H     -471.219    -491.132     180.848
  P     -474.115    -493.769     179.086
  C     -473.974    -496.137     180.067
  O     -473.863    -494.746     180.324
  O     -472.965    -494.214     178.066
  O     -475.470    -493.822     178.455
  H     -473.216    -495.040     177.615
  H     -473.625    -496.687     180.943
  H     -473.363    -496.414     179.203
  H     -475.022    -496.397     179.876
  H     -466.266    -491.864     176.936
  H     -465.948    -490.933     178.380
  H     -466.946    -490.264     177.112

 3  4  5  6  7  8  9  10  11  12  13  21  23  27  28  29  30  32 0
 6-311+G(2d,p)
 ****
 34  35 0
 6-311+G(2d,p)
 ****
 1  2  14  15  16  17  18  19  20  22  24  25  26 0
 3-21G
 ****
 31  33  36  37  38  39  40  41  42  43  44  45  46 0
 3-21G
 ****


