%nproc=1
%NoSave
%Mem=1900MB
#P OB98/GEN NMR

erre ene a

0 1
  C     -869.311    -889.081    -328.849
  O     -870.101    -889.230    -330.013
  H     -868.719    -889.988    -328.677
  H     -868.628    -888.239    -328.990
  H     -869.949    -888.884    -327.982
  P     -871.146    -890.445    -330.023
  C     -873.228    -888.916    -329.693
  O     -872.395    -889.934    -329.154
  C     -874.424    -888.703    -328.771
  O     -875.231    -889.901    -328.717
  C     -874.040    -888.392    -327.329
  O     -873.714    -887.031    -327.131
  C     -875.324    -888.766    -326.613
  O     -876.300    -887.724    -326.788
  C     -875.747    -890.033    -327.365
  N     -875.620    -892.934    -323.145
  C     -876.267    -891.776    -323.431
  N     -876.273    -891.088    -324.584
  C     -875.510    -891.688    -325.505
  C     -874.785    -892.862    -325.362
  C     -874.856    -893.497    -324.111
  N     -874.169    -894.649    -323.809
  N     -874.102    -893.161    -326.524
  C     -874.417    -892.188    -327.358
  N     -875.238    -891.260    -326.777
  O     -870.471    -891.542    -329.075
  O     -871.511    -890.980    -331.371
  H     -877.079    -887.968    -326.258
  H     -870.908    -892.404    -329.189
  H     -876.872    -891.370    -322.621
  H     -874.074    -892.108    -328.381
  H     -876.843    -890.135    -327.435
  H     -875.187    -888.890    -325.531
  H     -873.235    -889.054    -326.976
  H     -875.046    -887.902    -329.191
  H     -873.578    -889.227    -330.683
  H     -874.166    -894.945    -322.840
  H     -873.486    -895.001    -324.462
  H     -872.654    -887.989    -329.788
  P     -873.141    -886.613    -325.689
  C     -870.671    -887.384    -325.927
  O     -871.953    -887.640    -325.349
  O     -874.311    -887.057    -324.694
  O     -872.806    -885.155    -325.552
  H     -874.355    -886.463    -323.919
  H     -869.982    -888.142    -325.617
  H     -870.318    -886.427    -325.603
  H     -870.753    -887.391    -326.994

 6  7  8  9  10  11  12  13  14  15  25  28  32  33  34  35 0
 6-311+G(2d,p)
 ****
 36  39  40 0
 6-311+G(2d,p)
 ****
 1  2  3  4  5  16  17  18  19  20  21  22  23  24 0
 3-21G
 ****
 26  27  29  30  31  37  38  41  42  43  44  45  46  47 0
 3-21G
 ****
 48 0
 3-21G
 ****


