%nproc=1
%NoSave
%Mem=1900MB
#P OB98/GEN NMR

erre ene a

0 1
  C      396.628    -374.725     146.957
  O      396.968    -373.829     145.902
  P      395.914    -372.964     145.069
  C      395.683    -374.668     143.089
  O      395.064    -373.963     144.154
  C      394.892    -375.906     142.641
  O      393.665    -375.487     141.992
  C      395.683    -376.705     141.606
  O      396.668    -377.630     142.022
  C      394.625    -377.298     140.685
  O      394.248    -378.623     141.067
  C      393.445    -376.339     140.847
  N      391.855    -376.197     135.981
  C      392.008    -377.283     136.818
  N      391.758    -378.499     136.280
  N      392.391    -377.191     138.065
  C      392.695    -375.930     138.447
  C      392.603    -374.777     137.705
  C      392.125    -374.883     136.341
  O      391.954    -373.949     135.565
  N      393.022    -373.682     138.423
  C      393.386    -374.181     139.589
  N      393.202    -375.540     139.652
  O      396.462    -371.743     144.409
  O      394.856    -372.484     146.192
  H      393.726    -379.008     140.334
  H      394.541    -371.601     145.911
  H      391.536    -376.322     135.037
  H      393.784    -373.602     140.410
  H      392.515    -376.889     141.043
  H      395.000    -377.368     139.655
  H      391.573    -378.642     135.304
  H      396.229    -375.975     140.983
  H      392.074    -379.304     136.821
  H      394.586    -376.501     143.506
  H      396.682    -374.951     143.435
  H      395.831    -373.998     142.236
  P      398.256    -377.443     141.888
  C      398.113    -378.752     139.694
  O      398.651    -377.617     140.350
  O      398.851    -378.772     142.556
  O      398.810    -376.223     142.551
  H      399.799    -378.650     142.763
  H      398.678    -378.936     138.774
  H      397.070    -378.572     139.431
  H      398.182    -379.640     140.331
  H      397.519    -375.175     147.344
  H      395.978    -375.487     146.582
  H      396.133    -374.186     147.737

 3  4  5  6  7  8  9  10  11  12  23  26  30  31 0
 6-311+G(2d,p)
 ****
 33  35  36  37  38 0
 6-311+G(2d,p)
 ****
 1  2  13  14  15  16  17  18  19  20  21  22  24  25 0
 3-21G
 ****
 27  28  29  32  34  39  40  41  42  43  44  45  46  47  48  49 0
 3-21G
 ****


