%nproc=1
%NoSave
%Mem=1900MB
#P OB98/GEN NMR

erre ene a

0 1
  C      160.055      64.713      59.818
  O      161.195      63.921      59.530
  P      162.497      63.992      60.453
  C      164.116      64.532      58.458
  O      163.589      64.891      59.716
  C      165.405      65.326      58.214
  O      165.098      66.718      57.992
  C      166.353      65.237      59.408
  O      167.298      64.197      59.220
  C      166.974      66.620      59.441
  O      168.047      66.713      58.486
  C      165.785      67.506      59.000
  N      164.797      67.903      60.021
  C      165.211      68.625      61.136
  O      166.367      68.991      61.322
  N      164.236      68.897      62.063
  C      162.918      68.563      61.956
  O      162.116      68.594      62.882
  C      162.500      68.051      60.647
  C      163.444      67.728      59.764
  O      163.099      62.514      60.342
  O      162.259      64.394      61.871
  H      168.745      66.100      58.778
  H      162.844      61.980      61.117
  H      164.557      69.298      62.939
  H      161.444      67.904      60.466
  H      163.161      67.310      58.801
  H      166.139      68.426      58.520
  H      167.414      66.832      60.414
  H      165.783      65.086      60.334
  H      165.894      64.940      57.311
  H      163.383      64.742      57.671
  H      164.322      63.458      58.430
  P      168.107      63.627      60.477
  C      170.248      64.593      59.452
  O      169.413      64.550      60.592
  O      168.360      62.156      60.467
  O      167.203      64.066      61.724
  H      166.638      63.318      62.004
  H      170.990      65.383      59.590
  H      169.662      64.808      58.554
  H      170.766      63.637      59.337
  H      159.295      64.523      59.089
  H      160.324      65.748      59.791
  H      159.685      64.465      60.791

 3  4  5  6  7  8  9  10  11  12  13  23  28  29  30  31  32 0
 6-311+G(2d,p)
 ****
 33  34 0
 6-311+G(2d,p)
 ****
 1  2  14  15  16  17  18  19  20  21  22  24  25  26  27 0
 3-21G
 ****
 35  36  37  38  39  40  41  42  43  44  45 0
 3-21G
 ****


