%nproc=1
%NoSave
%Mem=1900MB
#P OB98/GEN NMR

erre ene a

0 1
  C      -61.151      21.300     105.237
  O      -62.341      21.927     104.753
  P      -63.719      21.716     105.538
  C      -63.392      22.425     108.004
  O      -63.835      22.806     106.707
  C      -64.148      23.220     109.072
  O      -64.001      22.621     110.382
  C      -63.625      24.641     109.235
  O      -63.869      25.535     108.170
  C      -64.158      25.026     110.604
  O      -65.509      25.478     110.534
  C      -64.073      23.680     111.361
  N      -62.943      23.624     112.289
  C      -63.050      24.413     113.429
  O      -64.002      25.157     113.650
  N      -61.995      24.347     114.301
  C      -60.858      23.613     114.128
  O      -59.934      23.608     114.931
  C      -60.794      22.818     112.892
  C      -61.821      22.858     112.042
  O      -64.025      20.314     105.943
  O      -64.810      22.237     104.477
  H      -65.530      26.244     109.929
  H      -65.573      21.629     104.513
  H      -62.059      24.906     115.137
  H      -59.904      22.227     112.720
  H      -61.794      22.279     111.125
  H      -64.989      23.509     111.942
  H      -63.573      25.836     111.052
  H      -62.531      24.586     109.327
  H      -65.212      23.211     108.824
  H      -62.318      22.597     108.093
  H      -63.544      21.347     108.129
  P      -62.705      26.323     107.400
  C      -62.095      24.780     105.408
  O      -62.775      25.935     105.846
  O      -61.357      26.351     108.037
  O      -63.293      27.820     107.387
  H      -62.545      28.444     107.442
  H      -62.236      24.681     104.328
  H      -62.499      23.891     105.896
  H      -61.025      24.866     105.613
  H      -60.331      21.547     104.595
  H      -61.287      20.239     105.249
  H      -60.944      21.645     106.229

 3  4  5  6  7  8  9  10  11  12  13  23  28  29  30  31  32 0
 6-311+G(2d,p)
 ****
 33  34 0
 6-311+G(2d,p)
 ****
 1  2  14  15  16  17  18  19  20  21  22  24  25  26  27 0
 3-21G
 ****
 35  36  37  38  39  40  41  42  43  44  45 0
 3-21G
 ****


