%nproc=1
%NoSave
%Mem=1900MB
#P OB98/GEN NMR

erre ene a

0 1
  C       86.372    -171.147     -50.738
  O       84.975    -170.936     -50.770
  H       86.857    -170.403     -51.378
  H       86.609    -172.147     -51.116
  H       86.748    -171.037     -49.717
  P       84.078    -171.973     -49.935
  C       84.805    -174.102     -51.221
  O       83.754    -173.190     -50.929
  C       84.639    -174.673     -52.629
  O       85.740    -175.549     -52.957
  C       83.359    -175.480     -52.836
  O       82.264    -174.630     -53.127
  C       83.753    -176.358     -54.013
  O       83.650    -175.631     -55.259
  C       85.217    -176.684     -53.698
  N       85.833    -181.688     -54.023
  C       85.576    -180.757     -55.007
  N       85.426    -181.228     -56.266
  N       85.456    -179.473     -54.782
  C       85.568    -179.151     -53.471
  C       85.824    -179.982     -52.404
  C       86.009    -181.392     -52.675
  O       86.322    -182.253     -51.861
  N       85.881    -179.276     -51.229
  C       85.631    -178.028     -51.582
  N       85.425    -177.904     -52.932
  O       82.664    -171.224     -49.802
  O       84.613    -172.350     -48.596
  H       83.987    -176.190     -55.982
  H       82.295    -171.409     -48.919
  H       85.947    -182.660     -54.261
  H       85.597    -177.185     -50.906
  H       85.823    -176.783     -54.606
  H       83.093    -177.222     -54.108
  H       85.219    -182.200     -56.456
  H       83.149    -176.115     -51.964
  H       85.163    -180.553     -56.974
  H       84.679    -173.830     -53.332
  H       84.778    -174.920     -50.492
  H       85.765    -173.583     -51.144
  P       80.931    -174.783     -52.251
  C       79.498    -176.277     -53.818
  O       79.699    -174.984     -53.260
  O       80.707    -173.303     -51.678
  O       81.024    -175.777     -51.144
  H       80.951    -173.272     -50.734
  H       78.647    -176.257     -54.466
  H       79.332    -176.983     -53.031
  H       80.365    -176.563     -54.377

 6  7  8  9  10  11  12  13  14  15  26  29  33  34 0
 6-311+G(2d,p)
 ****
 36  38  39  40  41 0
 6-311+G(2d,p)
 ****
 1  2  3  4  5  16  17  18  19  20  21  22  23  24  25 0
 3-21G
 ****
 27  28  30  31  32  35  37  42  43  44  45  46  47 0
 3-21G
 ****
 48  49 0
 3-21G
 ****


