%nproc=1
%NoSave
%Mem=1900MB
#P OB98/GEN NMR

erre ene a

0 1
  C      -66.865    -709.272    -789.523
  O      -66.996    -710.182    -790.594
  H      -67.092    -709.768    -788.574
  H      -65.839    -708.903    -789.496
  H      -67.542    -708.421    -789.675
  P      -68.406    -710.916    -790.740
  C      -68.880    -709.595    -792.928
  O      -68.794    -710.871    -792.308
  C      -68.336    -709.664    -794.351
  O      -66.903    -709.848    -794.332
  C      -68.876    -710.820    -795.189
  O      -70.173    -710.554    -795.696
  C      -67.840    -710.865    -796.303
  O      -68.124    -709.852    -797.277
  C      -66.524    -710.525    -795.553
  N      -63.624    -714.303    -797.439
  C      -64.291    -713.296    -798.051
  N      -65.047    -712.343    -797.485
  C      -65.074    -712.461    -796.133
  C      -64.446    -713.447    -795.394
  C      -63.700    -714.415    -796.090
  N      -63.030    -715.446    -795.469
  N      -64.689    -713.257    -794.045
  C      -65.465    -712.198    -793.983
  N      -65.731    -711.687    -795.231
  O      -69.445    -709.878    -790.078
  O      -68.512    -712.259    -790.089
  H      -67.903    -708.994    -796.870
  H      -70.141    -710.377    -789.611
  H      -64.185    -713.241    -799.128
  H      -65.836    -711.749    -793.066
  H      -65.912    -709.821    -796.141
  H      -67.814    -711.821    -796.822
  H      -68.852    -711.758    -794.619
  H      -68.552    -708.695    -794.831
  H      -68.291    -708.868    -792.354
  H      -62.350    -715.969    -795.989
  H      -63.088    -715.497    -794.455
  H      -69.925    -709.266    -792.933
  P      -71.275    -711.715    -795.594
  C      -72.593    -710.796    -793.542
  O      -72.583    -711.040    -794.951
  O      -70.714    -712.623    -794.398
  O      -71.479    -712.497    -796.839
  H      -71.037    -713.548    -794.487
  H      -73.523    -710.346    -793.264
  H      -71.789    -710.137    -793.288
  H      -72.474    -711.722    -793.019

 6  7  8  9  10  11  12  13  14  15  25  28  32  33  34  35 0
 6-311+G(2d,p)
 ****
 36  39  40 0
 6-311+G(2d,p)
 ****
 1  2  3  4  5  16  17  18  19  20  21  22  23  24 0
 3-21G
 ****
 26  27  29  30  31  37  38  41  42  43  44  45  46  47  48 0
 3-21G
 ****


