%nproc=1
%NoSave
%Mem=1900MB
#P OB98/GEN NMR

erre ene a

0 1
  C      -66.671    -144.274     214.504
  O      -66.990    -144.853     215.769
  P      -66.943    -146.414     216.102
  C      -69.236    -147.045     214.974
  O      -67.821    -147.192     215.016
  C      -69.931    -148.415     214.868
  O      -71.375    -148.205     214.858
  C      -69.571    -149.160     213.575
  O      -69.337    -150.554     213.763
  C      -70.700    -148.766     212.634
  O      -70.850    -149.652     211.534
  C      -71.891    -148.669     213.590
  N      -75.585    -147.904     210.146
  C      -74.620    -148.893     210.187
  N      -74.623    -149.787     209.180
  N      -73.720    -148.986     211.131
  C      -73.779    -147.983     212.038
  C      -74.677    -146.943     212.094
  C      -75.704    -146.874     211.074
  O      -76.587    -146.038     210.997
  N      -74.427    -146.122     213.167
  C      -73.371    -146.659     213.749
  N      -72.943    -147.796     213.100
  O      -67.162    -146.781     217.534
  O      -65.438    -146.842     215.717
  H      -71.079    -150.527     211.886
  H      -65.186    -147.562     216.328
  H      -76.269    -147.895     209.412
  H      -72.887    -146.276     214.640
  H      -72.362    -149.643     213.752
  H      -70.459    -147.777     212.222
  H      -75.203    -149.703     208.359
  H      -68.620    -148.798     213.168
  H      -73.784    -150.366     209.097
  H      -69.679    -149.008     215.758
  H      -69.447    -146.453     214.077
  H      -69.593    -146.486     215.840
  P      -68.030    -151.401     213.414
  C      -69.052    -152.682     211.441
  O      -68.059    -151.761     211.847
  O      -68.256    -152.820     214.113
  O      -66.748    -150.793     213.887
  H      -67.557    -152.977     214.779
  H      -68.801    -153.039     210.439
  H      -70.027    -152.178     211.401
  H      -69.101    -153.533     212.127
  H      -66.786    -143.212     214.559
  H      -67.329    -144.666     213.756
  H      -65.659    -144.511     214.248

 3  4  5  6  7  8  9  10  11  12  23  26  30  31 0
 6-311+G(2d,p)
 ****
 33  35  36  37  38 0
 6-311+G(2d,p)
 ****
 1  2  13  14  15  16  17  18  19  20  21  22  24  25 0
 3-21G
 ****
 27  28  29  32  34  39  40  41  42  43  44  45  46  47  48  49 0
 3-21G
 ****


