%nproc=1
%NoSave
%Mem=1900MB
#P OB98/GEN NMR

erre ene a

0 1
  C     -111.082     -65.016       4.420
  O     -111.648     -63.870       3.789
  P     -112.368     -62.672       4.558
  C     -114.849     -62.010       5.087
  O     -113.933     -62.993       4.628
  C     -116.044     -61.808       4.139
  O     -115.581     -61.219       2.896
  C     -116.672     -63.152       3.773
  O     -117.612     -63.757       4.640
  C     -117.172     -62.969       2.348
  O     -118.546     -62.579       2.294
  C     -116.279     -61.850       1.804
  N     -115.558     -64.240      -2.661
  C     -116.728     -64.045      -1.955
  N     -117.845     -64.598      -2.475
  N     -116.793     -63.384      -0.832
  C     -115.592     -62.959      -0.379
  C     -114.363     -63.109      -0.978
  C     -114.308     -63.793      -2.254
  O     -113.300     -63.982      -2.926
  N     -113.361     -62.566      -0.214
  C     -113.980     -62.113       0.856
  N     -115.339     -62.321       0.800
  O     -111.977     -61.300       4.124
  O     -111.872     -62.860       6.082
  H     -118.894     -62.829       1.420
  H     -111.816     -61.963       6.470
  H     -115.569     -64.737      -3.535
  H     -113.497     -61.623       1.693
  H     -116.876     -61.066       1.323
  H     -117.094     -63.909       1.788
  H     -117.841     -65.217      -3.270
  H     -115.852     -63.879       3.703
  H     -118.657     -64.645      -1.856
  H     -116.758     -61.096       4.560
  H     -114.286     -61.079       5.196
  H     -115.210     -62.273       6.082
  P     -117.279     -64.689       5.899
  C     -116.863     -67.177       6.346
  O     -117.007     -66.170       5.360
  O     -118.684     -64.842       6.650
  O     -116.237     -64.151       6.824
  H     -118.550     -65.169       7.558
  H     -116.385     -68.050       5.895
  H     -117.848     -67.465       6.723
  H     -116.243     -66.823       7.177
  H     -110.664     -65.662       3.677
  H     -111.844     -65.539       4.960
  H     -110.313     -64.707       5.097

 3  4  5  6  7  8  9  10  11  12  23  26  30  31 0
 6-311+G(2d,p)
 ****
 33  35  36  37  38 0
 6-311+G(2d,p)
 ****
 1  2  13  14  15  16  17  18  19  20  21  22  24  25 0
 3-21G
 ****
 27  28  29  32  34  39  40  41  42  43  44  45  46  47  48  49 0
 3-21G
 ****


