%nproc=1
%NoSave
%Mem=1900MB
#P OB98/GEN NMR

erre ene a

0 1
  C      797.802    -644.707    -240.195
  O      797.182    -643.438    -240.363
  P      797.811    -642.327    -241.334
  C      796.967    -640.065    -242.265
  O      796.646    -641.226    -241.508
  C      795.723    -639.180    -242.398
  O      794.735    -639.861    -243.198
  C      795.036    -638.843    -241.077
  O      795.756    -637.845    -240.364
  C      793.655    -638.448    -241.563
  O      793.661    -637.102    -242.054
  C      793.421    -639.427    -242.737
  N      792.590    -640.564    -242.371
  C      791.229    -640.307    -242.192
  O      790.765    -639.173    -242.358
  N      790.394    -641.356    -241.875
  C      790.882    -642.543    -241.721
  N      790.013    -643.565    -241.464
  C      792.334    -642.855    -241.840
  C      793.113    -641.825    -242.167
  O      798.360    -642.863    -242.616
  O      798.878    -641.562    -240.438
  H      792.829    -636.973    -242.548
  H      799.780    -641.969    -240.456
  H      792.684    -643.862    -241.680
  H      794.175    -641.967    -242.294
  H      792.962    -638.901    -243.583
  H      792.877    -638.513    -240.786
  H      794.959    -639.748    -240.447
  H      796.011    -638.263    -242.919
  H      789.023    -643.344    -241.571
  H      797.296    -640.372    -243.262
  H      790.274    -644.533    -241.618
  H      797.782    -639.531    -241.771
  P      794.992    -637.096    -239.184
  C      795.724    -635.978    -236.947
  O      796.122    -636.620    -238.145
  O      794.221    -638.284    -238.419
  O      794.054    -636.021    -239.638
  H      793.283    -638.298    -238.672
  H      796.568    -635.948    -236.269
  H      794.914    -636.550    -236.458
  H      795.387    -634.965    -237.156
  H      797.228    -645.297    -239.511
  H      798.790    -644.573    -239.808
  H      797.854    -645.206    -241.140

 3  4  5  6  7  8  9  10  11  12  13  23  27  28  29  30  32 0
 6-311+G(2d,p)
 ****
 34  35 0
 6-311+G(2d,p)
 ****
 1  2  14  15  16  17  18  19  20  21  22  24  25  26 0
 3-21G
 ****
 31  33  36  37  38  39  40  41  42  43  44  45  46 0
 3-21G
 ****


