%nproc=1
%NoSave
%Mem=1900MB
#P OB98/GEN NMR

erre ene a

0 1
  C     -425.829     466.881     725.981
  O     -425.456     466.932     724.599
  P     -426.516     467.412     723.482
  C     -427.718     465.171     723.153
  O     -427.848     466.522     723.596
  C     -429.027     464.372     723.237
  O     -428.881     463.067     722.616
  C     -429.550     464.132     724.661
  O     -430.986     464.137     724.565
  C     -429.026     462.747     724.974
  O     -429.717     462.129     726.059
  C     -429.191     462.054     723.609
  N     -428.328     460.876     723.469
  C     -428.960     459.660     723.220
  O     -430.192     459.608     723.167
  N     -428.194     458.537     723.055
  C     -426.910     458.608     723.248
  N     -426.208     457.449     723.092
  C     -426.196     459.845     723.604
  C     -426.961     460.933     723.693
  O     -425.962     467.517     722.100
  O     -426.991     468.856     724.003
  H     -430.663     462.066     725.829
  H     -427.220     469.412     723.246
  H     -425.143     459.846     723.781
  H     -426.539     461.906     723.942
  H     -430.223     461.747     723.450
  H     -427.961     462.804     725.252
  H     -429.196     464.875     725.389
  H     -429.798     464.919     722.646
  H     -426.729     456.609     722.873
  H     -426.947     464.679     723.752
  H     -425.225     457.358     723.330
  H     -427.352     465.177     722.115
  P     -431.875     465.362     725.079
  C     -432.330     464.540     727.464
  O     -431.638     465.478     726.666
  O     -433.297     465.329     724.657
  O     -431.132     466.678     724.503
  H     -431.750     467.434     724.512
  H     -431.943     464.563     728.485
  H     -432.197     463.519     727.080
  H     -433.405     464.795     727.472
  H     -424.998     466.541     726.562
  H     -426.650     466.206     726.104
  H     -426.118     467.858     726.309

 3  4  5  6  7  8  9  10  11  12  13  23  27  28  29  30  32 0
 6-311+G(2d,p)
 ****
 34  35 0
 6-311+G(2d,p)
 ****
 1  2  14  15  16  17  18  19  20  21  22  24  25  26 0
 3-21G
 ****
 31  33  36  37  38  39  40  41  42  43  44  45  46 0
 3-21G
 ****


