%nproc=1
%NoSave
%Mem=1900MB
#P OB98/GEN NMR

erre ene a

0 1
  C      -25.307       9.951      -2.510
  O      -24.839       9.689      -3.816
  H      -26.373      10.186      -2.559
  H      -24.778      10.807      -2.082
  H      -25.167       9.072      -1.877
  P      -23.273       9.378      -3.976
  C      -21.622       7.659      -2.944
  O      -22.923       8.230      -2.913
  C      -21.359       6.914      -1.640
  O      -21.285       7.853      -0.544
  C      -22.454       5.929      -1.256
  O      -22.367       4.718      -1.986
  C      -22.170       5.746       0.225
  O      -21.144       4.765       0.448
  C      -21.693       7.152       0.648
  N      -22.718       7.881       1.388
  C      -22.864       7.526       2.725
  O      -22.185       6.657       3.270
  N      -23.849       8.180       3.413
  C      -24.708       9.104       2.895
  O      -25.617       9.600       3.547
  C      -24.497       9.450       1.479
  C      -23.534       8.825       0.798
  O      -22.580      10.686      -3.368
  O      -22.824       9.099      -5.371
  H      -22.261      11.259      -4.089
  H      -20.336       5.116       0.026
  H      -23.977       7.929       4.380
  H      -25.158      10.186       1.038
  H      -23.373       9.049      -0.252
  H      -20.805       7.077       1.289
  H      -23.054       5.406       0.764
  H      -23.440       6.392      -1.373
  H      -20.390       6.403      -1.721
  H      -20.877       8.453      -3.058
  H      -21.550       6.983      -3.802
  P      -23.703       3.860      -2.209
  C      -25.883       4.302      -3.607
  O      -24.748       4.829      -2.946
  O      -24.257       3.756      -0.713
  O      -23.472       2.555      -2.889
  H      -24.089       4.557      -0.189
  H      -26.452       5.102      -4.032
  H      -26.489       3.768      -2.905
  H      -25.567       3.637      -4.384

 6  7  8  9  10  11  12  13  14  15  16  27  31  32  33  34  35 0
 6-311+G(2d,p)
 ****
 36  37 0
 6-311+G(2d,p)
 ****
 1  2  3  4  5  17  18  19  20  21  22  23  24  25 0
 3-21G
 ****
 26  28  29  30  38  39  40  41  42  43  44  45 0
 3-21G
 ****


