%nproc=1
%NoSave
%Mem=1900MB
#P OB98/GEN NMR

erre ene a

0 1
  C      -64.733      84.156    -262.478
  O      -63.992      85.276    -262.937
  P      -63.094      86.058    -261.866
  C      -62.781      87.907    -263.693
  O      -63.041      87.602    -262.329
  C      -62.300      89.361    -263.821
  O      -63.424      90.280    -263.706
  C      -61.328      89.776    -262.722
  O      -60.015      89.289    -262.992
  C      -61.430      91.302    -262.774
  O      -60.594      91.834    -263.804
  C      -62.928      91.496    -263.110
  N      -63.721      91.904    -261.955
  C      -63.793      93.285    -261.721
  O      -63.213      94.111    -262.412
  N      -64.531      93.668    -260.634
  C      -65.134      92.830    -259.733
  O      -65.738      93.217    -258.735
  C      -64.989      91.381    -260.012
  C      -64.303      90.991    -261.091
  O      -61.606      85.522    -262.152
  O      -63.501      85.856    -260.450
  H      -60.886      92.757    -263.958
  H      -61.107      85.471    -261.309
  H      -64.613      94.649    -260.460
  H      -65.478      90.690    -259.323
  H      -64.183      89.935    -261.304
  H      -63.032      92.281    -263.884
  H      -61.127      91.751    -261.826
  H      -61.687      89.415    -261.754
  H      -61.850      89.500    -264.820
  H      -63.713      87.770    -264.269
  H      -62.018      87.219    -264.082
  P      -59.087      88.968    -261.710
  C      -57.207      88.230    -263.393
  O      -57.584      89.033    -262.270
  O      -59.395      87.404    -261.520
  O      -59.401      89.814    -260.536
  H      -59.567      86.943    -262.365
  H      -58.011      88.139    -264.114
  H      -56.903      87.247    -263.042
  H      -56.348      88.721    -263.881
  H      -65.283      83.734    -263.293
  H      -65.413      84.467    -261.713
  H      -64.062      83.422    -262.082

 3  4  5  6  7  8  9  10  11  12  13  23  28  29  30  31  32 0
 6-311+G(2d,p)
 ****
 33  34 0
 6-311+G(2d,p)
 ****
 1  2  14  15  16  17  18  19  20  21  22  24  25  26 0
 3-21G
 ****
 27  35  36  37  38  39  40  41  42  43  44  45 0
 3-21G
 ****


