%nproc=1
%NoSave
%Mem=1900MB
#P OB98/GEN NMR

erre ene a

0 1
  C      -65.080     379.360     -97.245
  O      -64.668     380.469     -98.026
  P      -64.230     380.180     -99.545
  C      -61.844     379.867    -100.523
  O      -62.756     379.545     -99.481
  C      -60.940     378.679    -100.855
  O      -61.729     377.647    -101.492
  C      -59.771     379.019    -101.783
  O      -58.638     378.253    -101.368
  C      -60.236     378.518    -103.138
  O      -59.138     378.232    -104.002
  C      -61.078     377.297    -102.730
  N      -62.043     376.924    -103.761
  C      -61.729     375.811    -104.547
  O      -60.647     375.248    -104.411
  N      -62.626     375.408    -105.505
  C      -63.693     376.111    -105.726
  N      -64.554     375.662    -106.682
  C      -64.000     377.361    -105.002
  C      -63.151     377.691    -104.028
  O      -63.973     381.650    -100.126
  O      -65.233     379.421    -100.349
  H      -59.495     377.827    -104.822
  H      -64.192     381.692    -101.075
  H      -64.881     377.932    -105.249
  H      -63.308     378.578    -103.428
  H      -60.430     376.433    -102.533
  H      -60.866     379.278    -103.620
  H      -59.519     380.087    -101.772
  H      -60.563     378.261     -99.912
  H      -64.313     374.816    -107.174
  H      -61.212     380.697    -100.204
  H      -65.408     376.150    -106.921
  H      -62.402     380.188    -101.409
  P      -57.231     379.010    -101.231
  C      -55.588     379.794    -103.044
  O      -56.947     379.623    -102.687
  O      -56.212     377.777    -101.192
  O      -57.028     379.917    -100.062
  H      -55.302     378.106    -101.050
  H      -55.539     380.083    -104.100
  H      -55.038     378.863    -102.907
  H      -55.140     380.586    -102.436
  H      -65.342     379.693     -96.262
  H      -64.280     378.652     -97.180
  H      -65.929     378.897     -97.703

 3  4  5  6  7  8  9  10  11  12  13  21  23  27  28  29  30  32 0
 6-311+G(2d,p)
 ****
 34  35 0
 6-311+G(2d,p)
 ****
 1  2  14  15  16  17  18  19  20  22  24  25  26 0
 3-21G
 ****
 31  33  36  37  38  39  40  41  42  43  44  45  46 0
 3-21G
 ****


