%nproc=1
%NoSave
%Mem=1900MB
#P OB98/GEN NMR

erre ene a

0 1
  C       61.909     233.840     439.937
  O       61.340     233.401     441.155
  H       61.817     234.927     439.878
  H       61.373     233.393     439.093
  H       62.970     233.569     439.891
  P       61.520     231.852     441.525
  C       61.076     229.818     439.925
  O       60.585     231.012     440.517
  C       60.511     229.670     438.513
  O       60.891     230.774     437.674
  C       61.027     228.450     437.768
  O       60.509     227.238     438.270
  C       60.570     228.777     436.352
  O       59.174     228.486     436.181
  C       60.822     230.305     436.296
  N       62.021     230.653     435.548
  C       61.808     231.088     434.234
  O       60.664     231.167     433.781
  N       62.902     231.386     433.456
  C       64.094     231.285     433.953
  N       65.136     231.589     433.135
  C       64.359     230.859     435.342
  C       63.289     230.553     436.072
  O       60.739     231.733     442.916
  O       62.932     231.365     441.560
  H       58.702     229.018     436.851
  H       59.827     232.067     442.880
  H       65.375     230.800     435.713
  H       63.396     230.230     437.100
  H       59.966     230.819     435.837
  H       61.111     228.201     435.602
  H       62.125     228.441     437.772
  H       59.413     229.658     438.589
  H       64.916     231.860     432.178
  H       60.831     228.945     440.536
  H       66.108     231.517     433.396
  H       62.168     229.896     439.884
  P       61.133     225.831     437.811
  C       61.858     224.788     435.574
  O       61.147     225.850     436.208
  O       60.492     224.628     438.417
  O       62.692     225.987     438.167
  H       63.137     226.723     437.716
  H       61.799     224.904     434.512
  H       61.425     223.851     435.855
  H       62.883     224.813     435.879

 6  7  8  9  10  11  12  13  14  15  16  26  30  31  32  33  35 0
 6-311+G(2d,p)
 ****
 37  38 0
 6-311+G(2d,p)
 ****
 1  2  3  4  5  17  18  19  20  21  22  23  24  25 0
 3-21G
 ****
 27  28  29  34  36  39  40  41  42  43  44  45  46 0
 3-21G
 ****


