%nproc=1
%NoSave
%Mem=1900MB
#P OB98/GEN NMR

erre ene a

0 1
  C     -127.687    -192.856     591.827
  O     -126.645    -192.249     592.569
  H     -127.349    -192.994     590.796
  H     -128.570    -192.209     591.825
  H     -127.943    -193.830     592.253
  P     -126.869    -192.109     594.150
  C     -124.351    -191.967     594.888
  O     -125.562    -192.713     594.872
  C     -123.182    -192.870     594.500
  O     -123.112    -193.056     593.075
  C     -121.817    -192.299     594.854
  O     -121.564    -192.303     596.242
  C     -120.913    -193.227     594.057
  O     -120.734    -194.481     594.733
  C     -121.738    -193.415     592.764
  N     -121.218    -192.632     591.648
  C     -120.841    -193.365     590.510
  O     -120.974    -194.588     590.492
  N     -120.305    -192.690     589.448
  C     -120.175    -191.399     589.493
  N     -119.625    -190.794     588.407
  C     -120.584    -190.592     590.661
  C     -121.085    -191.262     591.689
  O     -127.981    -193.221     594.446
  O     -127.221    -190.739     594.624
  H     -121.607    -194.916     594.739
  H     -127.744    -194.107     594.119
  H     -120.463    -189.518     590.651
  H     -121.404    -190.746     592.583
  H     -121.746    -194.473     592.459
  H     -119.920    -192.801     593.908
  H     -121.709    -191.285     594.438
  H     -123.338    -193.851     594.972
  H     -119.339    -191.382     587.636
  H     -124.184    -191.516     595.864
  H     -119.444    -189.802     588.341
  H     -124.456    -191.153     594.158
  P     -121.934    -191.031     597.144
  C     -123.453    -192.224     598.847
  O     -123.394    -191.312     597.752
  O     -121.789    -189.706     596.465
  O     -120.992    -191.203     598.429
  H     -121.135    -192.024     598.927
  H     -124.468    -192.332     599.167
  H     -122.863    -191.848     599.656
  H     -123.072    -193.176     598.540

 6  7  8  9  10  11  12  13  14  15  16  26  30  31  32  33  35 0
 6-311+G(2d,p)
 ****
 37  38 0
 6-311+G(2d,p)
 ****
 1  2  3  4  5  17  18  19  20  21  22  23  24  25 0
 3-21G
 ****
 27  28  29  34  36  39  40  41  42  43  44  45  46 0
 3-21G
 ****


