%nproc=1
%NoSave
%Mem=1900MB
#P OB98/GEN NMR

erre ene a

0 1
  C     -190.466      52.339    -208.332
  O     -191.787      52.314    -208.833
  H     -189.825      52.917    -209.001
  H     -190.473      52.818    -207.349
  H     -190.075      51.323    -208.226
  P     -192.028      51.496    -210.192
  C     -194.098      49.976    -209.789
  O     -193.611      51.224    -210.263
  C     -194.395      50.054    -208.290
  O     -195.404      51.073    -208.065
  C     -194.921      48.740    -207.703
  O     -194.366      48.562    -206.398
  C     -196.419      48.974    -207.600
  O     -197.025      48.161    -206.602
  C     -196.472      50.470    -207.309
  N     -201.412      50.790    -206.060
  C     -200.359      50.221    -205.437
  N     -199.069      50.186    -205.835
  C     -198.911      50.867    -206.984
  C     -199.889      51.497    -207.735
  C     -201.199      51.433    -207.233
  N     -202.286      51.978    -207.879
  N     -199.339      52.054    -208.874
  C     -198.055      51.767    -208.808
  N     -197.750      51.047    -207.686
  O     -191.414      50.057    -209.837
  O     -191.415      52.079    -211.419
  H     -196.772      48.513    -205.724
  H     -190.443      50.089    -209.923
  H     -200.580      49.723    -204.496
  H     -197.312      52.046    -209.543
  H     -196.316      50.698    -206.245
  H     -196.894      48.746    -208.561
  H     -194.683      47.873    -208.321
  H     -193.489      50.386    -207.770
  H     -193.342      49.205    -209.972
  H     -203.197      51.837    -207.476
  H     -202.156      52.407    -208.784
  H     -195.013      49.717    -210.333
  P     -193.439      47.271    -206.178
  C     -192.429      47.949    -203.888
  O     -193.253      47.037    -204.599
  O     -191.995      47.765    -206.662
  O     -193.892      46.071    -206.947
  H     -191.614      47.119    -207.284
  H     -192.398      47.671    -202.855
  H     -192.829      48.937    -203.980
  H     -191.439      47.926    -204.293

 6  7  8  9  10  11  12  13  14  15  25  28  32  33  34  35 0
 6-311+G(2d,p)
 ****
 36  39  40 0
 6-311+G(2d,p)
 ****
 1  2  3  4  5  16  17  18  19  20  21  22  23  24 0
 3-21G
 ****
 26  27  29  30  31  37  38  41  42  43  44  45  46  47 0
 3-21G
 ****
 48 0
 3-21G
 ****


