%nproc=1
%NoSave
%Mem=1900MB
#P OB98/GEN NMR

erre ene a

0 1
  C     -459.840    -461.621    -304.086
  O     -460.293    -461.373    -305.399
  H     -460.531    -462.320    -303.604
  H     -459.816    -460.693    -303.507
  H     -458.843    -462.069    -304.112
  P     -459.448    -460.322    -306.267
  C     -460.480    -460.836    -308.570
  O     -460.425    -459.924    -307.479
  C     -461.448    -461.979    -308.257
  O     -462.802    -461.452    -308.235
  C     -461.409    -463.116    -309.287
  O     -461.605    -464.362    -308.614
  C     -462.610    -462.822    -310.164
  O     -463.081    -463.987    -310.844
  C     -463.590    -462.238    -309.143
  N     -468.542    -461.995    -310.296
  C     -467.837    -462.837    -309.510
  N     -466.513    -462.815    -309.237
  C     -465.928    -461.758    -309.833
  C     -466.512    -460.815    -310.657
  C     -467.893    -460.972    -310.899
  N     -468.615    -460.143    -311.725
  N     -465.572    -459.919    -311.111
  C     -464.433    -460.300    -310.552
  N     -464.601    -461.420    -309.788
  O     -458.084    -460.773    -306.671
  O     -459.492    -459.014    -305.344
  H     -463.391    -464.633    -310.174
  H     -460.395    -458.843    -305.015
  H     -468.404    -463.635    -309.046
  H     -463.471    -459.813    -310.685
  H     -464.114    -463.016    -308.571
  H     -462.353    -462.075    -310.924
  H     -460.483    -463.144    -309.856
  H     -461.231    -462.351    -307.244
  H     -459.486    -461.238    -308.781
  H     -469.600    -460.325    -311.834
  H     -468.151    -459.370    -312.174
  H     -460.823    -460.282    -309.452
  P     -460.338    -465.125    -308.009
  C     -461.503    -466.016    -305.886
  O     -460.860    -466.355    -307.107
  O     -459.309    -464.265    -307.359
  O     -459.734    -465.880    -309.289
  H     -458.752    -465.810    -309.269
  H     -461.802    -466.910    -305.380
  H     -462.365    -465.417    -306.091
  H     -460.826    -465.466    -305.267

 6  7  8  9  10  11  12  13  14  15  25  28  32  33  34  35 0
 6-311+G(2d,p)
 ****
 36  39  40 0
 6-311+G(2d,p)
 ****
 1  2  3  4  5  16  17  18  19  20  21  22  23  24 0
 3-21G
 ****
 26  27  29  30  31  37  38  41  42  43  44  45  46  47 0
 3-21G
 ****
 48 0
 3-21G
 ****


