%nproc=1
%NoSave
%Mem=1900MB
#P OB98/GEN NMR

erre ene a

0 1
  C      863.148     901.576     268.270
  O      861.771     901.332     268.543
  P      861.004     902.409     269.459
  C      859.193     902.719     267.573
  O      860.163     903.312     268.422
  C      857.992     903.650     267.397
  O      857.433     904.001     268.685
  C      858.348     904.969     266.729
  O      858.545     904.809     265.332
  C      857.117     905.806     267.100
  O      856.021     905.499     266.225
  C      856.801     905.295     268.523
  N      857.235     906.224     269.564
  C      856.405     907.335     269.778
  O      855.386     907.534     269.119
  N      856.810     908.193     270.757
  C      857.942     908.082     271.509
  O      858.239     908.883     272.383
  C      858.793     906.923     271.216
  C      858.410     906.057     270.268
  O      862.204     903.347     269.918
  O      860.215     901.786     270.564
  H      862.888     903.450     269.234
  H      856.223     905.908     265.365
  H      856.212     908.993     270.937
  H      859.720     906.823     271.772
  H      859.031     905.203     270.026
  H      855.726     905.129     268.642
  H      857.305     906.876     267.035
  H      859.232     905.400     267.193
  H      857.241     903.117     266.819
  H      858.851     901.768     268.004
  H      859.668     902.490     266.609
  P      860.060     904.930     264.799
  C      859.946     902.471     263.910
  O      860.614     903.433     264.691
  O      860.793     905.519     266.096
  O      860.200     905.756     263.570
  H      860.522     905.086     266.927
  H      860.635     901.651     263.688
  H      859.602     902.913     262.965
  H      859.089     902.067     264.470
  H      863.534     900.790     267.655
  H      863.693     901.610     269.190
  H      863.250     902.511     267.760

 3  4  5  6  7  8  9  10  11  12  13  24  28  29  30  31  32 0
 6-311+G(2d,p)
 ****
 33  34 0
 6-311+G(2d,p)
 ****
 1  2  14  15  16  17  18  19  20  21  22  23  25  26  27 0
 3-21G
 ****
 35  36  37  38  39  40  41  42  43  44  45 0
 3-21G
 ****


