%nproc=1
%NoSave
%Mem=1900MB
#P OB98/GEN NMR

erre ene a

0 1
  C      -47.760     -29.308      79.399
  O      -48.946     -30.071      79.272
  P      -49.297     -30.708      77.842
  C      -49.995     -28.277      77.128
  O      -50.269     -29.666      77.105
  C      -51.039     -27.515      76.306
  O      -50.787     -26.087      76.432
  C      -51.037     -27.850      74.809
  O      -52.397     -27.786      74.358
  C      -50.223     -26.716      74.211
  O      -50.481     -26.526      72.828
  C      -50.661     -25.549      75.102
  N      -49.727     -24.425      75.089
  C      -49.439     -23.828      73.865
  O      -49.910     -24.207      72.792
  N      -48.557     -22.782      73.906
  C      -47.896     -22.326      75.009
  O      -47.101     -21.394      74.984
  C      -48.202     -23.024      76.266
  C      -49.096     -24.016      76.249
  O      -50.264     -31.908      78.268
  O      -48.099     -31.112      77.054
  H      -50.828     -31.691      79.029
  H      -51.381     -26.158      72.736
  H      -48.363     -22.310      73.033
  H      -47.687     -22.702      77.163
  H      -49.335     -24.546      77.163
  H      -51.658     -25.201      74.801
  H      -49.154     -26.933      74.330
  H      -50.623     -28.840      74.602
  H      -52.028     -27.709      76.741
  H      -49.004     -28.096      76.702
  H      -49.984     -27.928      78.166
  P      -53.022     -29.086      73.643
  C      -52.332     -28.622      71.161
  O      -53.355     -28.685      72.129
  O      -54.473     -29.115      74.331
  O      -52.255     -30.349      73.853
  H      -54.915     -28.251      74.317
  H      -52.784     -28.671      70.166
  H      -51.631     -29.453      71.265
  H      -51.795     -27.675      71.257
  H      -47.669     -28.955      80.405
  H      -47.800     -28.473      78.731
  H      -46.915     -29.919      79.157

 3  4  5  6  7  8  9  10  11  12  13  24  28  29  30  31  32 0
 6-311+G(2d,p)
 ****
 33  34 0
 6-311+G(2d,p)
 ****
 1  2  14  15  16  17  18  19  20  21  22  23  25  26  27 0
 3-21G
 ****
 35  36  37  38  39  40  41  42  43  44  45 0
 3-21G
 ****


