%nproc=1
%NoSave
%Mem=1900MB
#P OB98/GEN NMR

erre ene a

0 1
  C       44.141      77.601      21.256
  O       45.147      76.957      20.507
  H       44.617      78.268      21.978
  H       43.555      76.855      21.799
  H       43.480      78.190      20.616
  P       44.757      76.291      19.106
  C       42.892      74.758      18.194
  O       43.513      75.304      19.350
  C       42.591      73.269      18.363
  O       43.825      72.518      18.340
  C       41.910      72.955      19.698
  O       40.498      73.073      19.679
  C       42.335      71.509      19.938
  O       41.419      70.586      19.325
  C       43.710      71.428      19.264
  N       47.374      68.830      21.706
  C       46.338      68.344      20.929
  N       46.256      67.000      20.826
  N       45.466      69.113      20.331
  C       45.620      70.428      20.608
  C       46.593      71.023      21.378
  C       47.599      70.171      21.976
  O       48.544      70.552      22.658
  N       46.406      72.382      21.467
  C       45.273      72.590      20.825
  N       44.803      71.448      20.219
  O       45.961      75.266      18.832
  O       44.605      77.243      17.959
  H       41.724      69.680      19.524
  H       46.107      75.183      17.873
  H       48.031      68.191      22.116
  H       44.777      73.549      20.728
  H       43.815      70.504      18.681
  H       42.347      71.278      21.006
  H       46.846      66.362      21.333
  H       42.328      73.570      20.500
  H       45.405      66.600      20.425
  H       41.989      72.922      17.514
  H       43.587      74.907      17.367
  H       41.977      75.308      17.958
  P       39.724      73.863      20.833
  C       39.394      73.363      23.389
  O       39.523      72.877      22.071
  O       38.247      74.016      20.239
  O       40.314      75.181      21.215
  H       38.123      74.901      19.848
  H       39.269      72.540      24.062
  H       38.541      74.007      23.450
  H       40.274      73.911      23.655

 6  7  8  9  10  11  12  13  14  15  26  29  33  34 0
 6-311+G(2d,p)
 ****
 36  38  39  40  41 0
 6-311+G(2d,p)
 ****
 1  2  3  4  5  16  17  18  19  20  21  22  23  24  25 0
 3-21G
 ****
 27  28  30  31  32  35  37  42  43  44  45  46  47 0
 3-21G
 ****
 48  49 0
 3-21G
 ****


