%nproc=1
%NoSave
%Mem=1900MB
#P OB98/GEN NMR

erre ene a

0 1
  C      207.613     -52.870     132.975
  O      207.243     -53.347     134.252
  P      208.288     -53.578     135.438
  C      208.625     -51.026     135.789
  O      209.239     -52.286     135.529
  C      209.262     -50.280     136.972
  O      208.746     -50.813     138.208
  C      210.775     -50.523     136.991
  O      211.635     -49.740     136.184
  C      211.147     -50.566     138.469
  O      211.674     -49.323     138.942
  C      209.821     -50.883     139.161
  N      211.102     -53.583     143.257
  C      211.052     -52.210     143.100
  N      211.590     -51.481     144.103
  N      210.542     -51.620     142.051
  C      210.129     -52.482     141.095
  C      210.113     -53.861     141.141
  C      210.644     -54.497     142.321
  O      210.783     -55.711     142.465
  N      209.695     -54.408     139.954
  C      209.492     -53.366     139.174
  N      209.780     -52.179     139.808
  O      208.913     -54.935     135.530
  O      207.341     -53.395     136.732
  H      210.937     -48.691     139.003
  H      207.669     -54.004     137.423
  H      211.579     -53.982     144.055
  H      209.169     -53.417     138.141
  H      209.598     -50.138     139.935
  H      211.927     -51.320     138.650
  H      212.122     -51.900     144.851
  H      210.936     -51.546     136.635
  H      211.726     -50.490     143.944
  H      208.986     -49.224     136.965
  H      207.562     -51.211     135.977
  H      208.689     -50.401     134.895
  P      213.153     -50.070     135.817
  C      212.630     -51.101     133.536
  O      213.173     -51.325     134.825
  O      213.766     -50.677     137.169
  O      213.959     -48.896     135.364
  H      214.734     -50.580     137.163
  H      212.417     -52.063     133.065
  H      213.358     -50.559     132.919
  H      211.704     -50.518     133.596
  H      206.744     -52.799     132.355
  H      208.313     -53.546     132.531
  H      208.062     -51.904     133.072

 3  4  5  6  7  8  9  10  11  12  23  26  30  31 0
 6-311+G(2d,p)
 ****
 33  35  36  37  38 0
 6-311+G(2d,p)
 ****
 1  2  13  14  15  16  17  18  19  20  21  22  24  25 0
 3-21G
 ****
 27  28  29  32  34  39  40  41  42  43  44  45  46  47  48  49 0
 3-21G
 ****


