%nproc=1
%NoSave
%Mem=1900MB
#P OB98/GEN NMR

erre ene a

0 1
  C      620.353    -540.590     661.707
  O      619.385    -541.642     661.678
  P      619.332    -542.617     662.957
  C      616.945    -541.926     663.714
  O      618.331    -541.970     664.027
  C      616.225    -540.972     664.666
  O      616.848    -539.672     664.704
  C      614.775    -540.707     664.269
  O      613.951    -541.812     664.589
  C      614.483    -539.444     665.079
  O      614.198    -539.780     666.450
  C      615.819    -538.696     664.998
  N      615.801    -533.647     664.181
  C      615.774    -534.378     665.323
  N      615.778    -535.720     665.451
  C      615.828    -536.314     664.246
  C      615.856    -535.704     663.007
  C      615.841    -534.302     662.991
  N      615.848    -533.550     661.839
  N      615.897    -536.653     661.995
  C      615.871    -537.803     662.623
  N      615.839    -537.657     663.977
  O      620.776    -542.427     663.619
  O      619.067    -544.047     662.613
  H      613.329    -540.228     666.458
  H      621.318    -543.221     663.482
  H      615.752    -533.807     666.243
  H      615.862    -538.774     662.130
  H      616.090    -538.219     665.946
  H      613.627    -538.883     664.695
  H      614.711    -540.485     663.197
  H      616.256    -541.403     665.672
  H      616.508    -542.929     663.797
  H      615.747    -532.550     661.921
  H      615.785    -534.026     660.951
  H      616.830    -541.607     662.673
  P      613.424    -542.726     663.376
  C      614.856    -544.617     664.364
  O      614.570    -543.842     663.214
  O      613.688    -541.773     662.117
  O      612.036    -543.243     663.530
  H      614.567    -541.358     662.151
  H      615.617    -545.352     664.114
  H      613.960    -545.153     664.686
  H      615.222    -543.980     665.170
  H      620.286    -540.018     660.805
  H      621.334    -541.010     661.791
  H      620.164    -539.955     662.547

 3  4  5  6  7  8  9  10  11  12  22  25  29  30  31  32 0
 6-311+G(2d,p)
 ****
 33  36  37 0
 6-311+G(2d,p)
 ****
 1  2  13  14  15  16  17  18  19  20  21  23  24  26 0
 3-21G
 ****
 27  28  34  35  38  39  40  41  42  43  44  45  46  47  48 0
 3-21G
 ****


