%nproc=1
%NoSave
%Mem=1900MB
#P OB98/GEN NMR

erre ene a

0 1
  C      -87.345     328.805     -25.155
  O      -88.038     327.669     -25.627
  H      -87.172     329.478     -25.996
  H      -86.385     328.504     -24.736
  H      -87.930     329.331     -24.393
  P      -88.707     326.673     -24.568
  C      -88.852     324.273     -25.525
  O      -89.481     325.542     -25.406
  C      -89.313     323.549     -26.796
  O      -90.762     323.629     -26.880
  C      -88.758     324.225     -28.056
  O      -88.617     323.297     -29.137
  C      -89.841     325.220     -28.410
  O      -89.828     325.608     -29.789
  C      -91.104     324.463     -27.995
  N      -94.792     327.586     -29.643
  C      -93.742     327.028     -30.341
  N      -93.659     327.354     -31.663
  N      -92.834     326.260     -29.804
  C      -92.998     326.088     -28.464
  C      -93.989     326.596     -27.654
  C      -95.001     327.422     -28.278
  O      -95.947     327.955     -27.696
  N      -93.818     326.209     -26.349
  C      -92.725     325.471     -26.367
  N      -92.208     325.346     -27.627
  O      -89.911     327.531     -23.951
  O      -87.792     326.159     -23.496
  H      -90.545     326.257     -29.921
  H      -90.165     327.182     -23.074
  H      -95.480     328.152     -30.113
  H      -92.286     324.988     -25.501
  H      -91.452     323.818     -28.809
  H      -89.675     326.131     -27.829
  H      -94.218     328.093     -32.059
  H      -87.803     324.718     -27.889
  H      -92.746     327.222     -32.101
  H      -89.055     322.483     -26.738
  H      -89.116     323.702     -24.628
  H      -87.755     324.392     -25.524
  P      -87.138     322.970     -29.671
  C      -87.680     322.542     -32.229
  O      -87.220     322.057     -30.982
  O      -86.540     321.981     -28.565
  O      -86.269     324.180     -29.875
  H      -85.776     322.401     -28.110
  H      -87.645     321.755     -32.953
  H      -87.055     323.349     -32.550
  H      -88.687     322.889     -32.127

 6  7  8  9  10  11  12  13  14  15  26  29  33  34 0
 6-311+G(2d,p)
 ****
 36  38  39  40  41 0
 6-311+G(2d,p)
 ****
 1  2  3  4  5  16  17  18  19  20  21  22  23  24  25 0
 3-21G
 ****
 27  28  30  31  32  35  37  42  43  44  45  46  47 0
 3-21G
 ****
 48  49 0
 3-21G
 ****


