%nproc=1
%NoSave
%Mem=1900MB
#P OB98/GEN NMR

erre ene a

0 1
  C      514.609    -899.460     991.130
  O      513.492    -899.970     991.833
  H      514.713    -900.000     990.184
  H      515.522    -899.600     991.726
  H      514.480    -898.400     990.906
  P      513.132    -899.320     993.257
  C      511.504    -897.520     992.352
  O      512.789    -897.800     992.926
  C      510.638    -896.780     993.350
  O      511.365    -895.710     994.005
  C      509.393    -896.080     992.758
  O      508.372    -896.980     992.370
  C      509.011    -895.190     993.915
  O      508.351    -895.990     994.923
  C      510.387    -894.700     994.383
  N      510.749    -893.390     993.802
  C      510.109    -892.270     994.333
  O      509.295    -892.390     995.243
  N      510.399    -891.030     993.796
  C      511.237    -890.930     992.789
  N      511.479    -889.690     992.323
  C      511.908    -892.100     992.207
  C      511.615    -893.290     992.752
  O      514.116    -899.540     994.345
  O      511.671    -899.920     993.593
  H      507.970    -895.380     995.593
  H      511.403    -899.570     994.481
  H      512.569    -891.970     991.345
  H      512.084    -894.190     992.374
  H      510.419    -894.620     995.481
  H      508.309    -894.390     993.633
  H      509.700    -895.450     991.892
  H      510.334    -897.500     994.145
  H      510.967    -888.910     992.740
  H      511.059    -898.460     992.056
  H      512.054    -889.540     991.484
  H      511.639    -896.880     991.465
  P      507.862    -896.920     990.837
  C      509.330    -899.060     990.467
  O      508.941    -897.790     989.995
  O      508.189    -895.400     990.422
  O      506.444    -897.300     990.607
  H      507.395    -894.850     990.484
  H      510.042    -899.488     989.793
  H      508.471    -899.695     990.530
  H      509.772    -898.960     991.436

 6  7  8  9  10  11  12  13  14  15  16  26  30  31  32  33  35 0
 6-311+G(2d,p)
 ****
 37  38 0
 6-311+G(2d,p)
 ****
 1  2  3  4  5  17  18  19  20  21  22  23  24  25 0
 3-21G
 ****
 27  28  29  34  36  39  40  41  42  43  44  45  46 0
 3-21G
 ****


