%nproc=1
%NoSave
%Mem=1900MB
#P OB98/GEN NMR

erre ene a

0 1
  C      -21.895     120.348    -318.206
  O      -22.343     121.660    -318.504
  P      -23.194     122.507    -317.438
  C      -21.146     124.046    -317.106
  O      -22.102     123.195    -316.489
  C      -21.165     125.418    -316.439
  O      -21.093     125.261    -315.008
  C      -19.998     126.321    -316.816
  O      -20.177     126.874    -318.110
  C      -20.022     127.320    -315.665
  O      -21.042     128.308    -315.883
  C      -20.412     126.421    -314.473
  N      -19.266     126.029    -313.660
  C      -18.890     126.914    -312.646
  O      -19.509     127.960    -312.454
  N      -17.832     126.577    -311.839
  C      -17.190     125.468    -312.040
  N      -16.195     125.154    -311.167
  C      -17.519     124.534    -313.132
  C      -18.559     124.871    -313.891
  O      -24.245     121.732    -316.719
  O      -23.760     123.746    -318.269
  H      -20.865     129.036    -315.257
  H      -24.629     123.565    -318.706
  H      -16.946     123.628    -313.268
  H      -18.876     124.228    -314.702
  H      -21.140     126.933    -313.834
  H      -19.072     127.845    -315.522
  H      -19.057     125.758    -316.794
  H      -22.120     125.905    -316.683
  H      -16.121     125.731    -310.336
  H      -21.408     124.158    -318.163
  H      -15.852     124.206    -311.077
  H      -20.155     123.587    -317.035
  P      -19.094     126.503    -319.232
  C      -20.736     125.219    -320.774
  O      -19.615     125.145    -319.912
  O      -17.818     126.057    -318.376
  O      -18.781     127.613    -320.178
  H      -17.163     126.779    -318.344
  H      -20.811     124.280    -321.327
  H      -20.624     126.040    -321.487
  H      -21.648     125.355    -320.187
  H      -21.350     119.959    -319.041
  H      -22.738     119.720    -318.006
  H      -21.259     120.375    -317.346

 3  4  5  6  7  8  9  10  11  12  13  23  27  28  29  30  32 0
 6-311+G(2d,p)
 ****
 34  35 0
 6-311+G(2d,p)
 ****
 1  2  14  15  16  17  18  19  20  21  22  24  25  26 0
 3-21G
 ****
 31  33  36  37  38  39  40  41  42  43  44  45  46 0
 3-21G
 ****


