%nproc=1
%NoSave
%Mem=1900MB
#P OB98/GEN NMR

erre ene a

0 1
  C       19.513     -83.983      -5.428
  O       19.848     -84.989      -4.488
  P       19.535     -84.696      -2.941
  C       21.959     -83.883      -2.487
  O       20.574     -83.573      -2.455
  C       22.805     -82.615      -2.354
  O       22.258     -81.590      -3.230
  C       22.854     -82.027      -0.933
  O       24.160     -81.463      -0.764
  C       21.792     -80.942      -1.003
  O       21.878     -79.982       0.036
  C       22.032     -80.416      -2.416
  N       19.820     -75.807      -2.475
  C       20.974     -76.245      -1.923
  N       21.503     -77.486      -1.956
  C       20.715     -78.319      -2.658
  C       19.503     -78.022      -3.260
  C       19.055     -76.695      -3.151
  N       17.871     -76.254      -3.708
  N       18.969     -79.141      -3.866
  C       19.842     -80.098      -3.631
  N       20.921     -79.645      -2.925
  O       20.057     -86.019      -2.209
  O       18.097     -84.414      -2.630
  H       22.751     -79.542       0.011
  H       19.466     -86.276      -1.477
  H       21.550     -75.498      -1.384
  H       19.734     -81.132      -3.937
  H       22.932     -79.791      -2.474
  H       20.802     -81.409      -0.927
  H       22.680     -82.770      -0.151
  H       23.820     -82.838      -2.706
  H       22.204     -84.359      -3.442
  H       17.545     -75.347      -3.407
  H       17.220     -76.961      -4.025
  H       22.191     -84.596      -1.688
  P       25.099     -82.023       0.412
  C       24.577     -80.104       2.040
  O       24.402     -81.478       1.753
  O       26.360     -81.043       0.284
  O       25.428     -83.474       0.349
  H       26.088     -80.108       0.266
  H       23.976     -79.850       2.918
  H       24.248     -79.493       1.195
  H       25.629     -79.901       2.263
  H       19.775     -84.312      -6.412
  H       20.049     -83.086      -5.197
  H       18.461     -83.791      -5.385

 3  4  5  6  7  8  9  10  11  12  22  25  29  30  31  32 0
 6-311+G(2d,p)
 ****
 33  36  37 0
 6-311+G(2d,p)
 ****
 1  2  13  14  15  16  17  18  19  20  21  23  24  26 0
 3-21G
 ****
 27  28  34  35  38  39  40  41  42  43  44  45  46  47  48 0
 3-21G
 ****


