%nproc=1
%NoSave
%Mem=1900MB
#P OB98/GEN NMR

erre ene a

0 1
  C     -278.715    -108.787     105.876
  O     -278.514    -109.569     107.035
  H     -278.982    -107.771     106.179
  H     -279.529    -109.200     105.274
  H     -277.795    -108.751     105.285
  P     -278.213    -111.129     106.815
  C     -277.666    -111.373     109.344
  O     -278.417    -111.847     108.234
  C     -278.547    -111.371     110.591
  O     -279.493    -110.277     110.521
  C     -279.393    -112.626     110.755
  O     -278.656    -113.720     111.276
  C     -280.456    -112.132     111.719
  O     -280.015    -112.213     113.082
  C     -280.653    -110.669     111.284
  N     -281.892    -110.489     110.532
  C     -282.101    -109.217     110.008
  O     -281.307    -108.287     110.149
  N     -283.280    -109.034     109.338
  C     -284.270    -109.961     109.194
  O     -285.330    -109.715     108.629
  C     -284.001    -111.284     109.783
  C     -282.844    -111.483     110.421
  O     -276.629    -111.167     106.592
  O     -278.953    -111.759     105.681
  H     -276.433    -111.332     105.653
  H     -279.120    -111.822     113.100
  H     -283.450    -108.121     108.947
  H     -284.766    -112.043     109.689
  H     -282.628    -112.445     110.875
  H     -280.689    -110.009     112.161
  H     -281.363    -112.726     111.637
  H     -279.870    -112.889     109.803
  H     -277.907    -111.218     111.469
  H     -277.327    -110.351     109.149
  H     -276.791    -112.013     109.482
  P     -278.983    -115.182     110.700
  C     -276.544    -116.171     110.770
  O     -277.858    -116.150     111.310
  O     -278.575    -114.993     109.167
  O     -280.394    -115.602     110.937
  H     -277.895    -114.307     109.056
  H     -275.948    -116.876     111.310
  H     -276.108    -115.197     110.854
  H     -276.586    -116.455     109.739

 6  7  8  9  10  11  12  13  14  15  16  27  31  32  33  34  35 0
 6-311+G(2d,p)
 ****
 36  37 0
 6-311+G(2d,p)
 ****
 1  2  3  4  5  17  18  19  20  21  22  23  24  25 0
 3-21G
 ****
 26  28  29  30  38  39  40  41  42  43  44  45 0
 3-21G
 ****


