%nproc=1
%NoSave
%Mem=1900MB
#P OB98/GEN NMR

erre ene a

0 1
  C     -120.399     -49.187      98.763
  O     -121.076     -47.975      99.025
  H     -119.438     -49.173      99.285
  H     -120.216     -49.296      97.691
  H     -120.988     -50.033      99.128
  P     -122.467     -47.751      98.254
  C     -123.206     -46.177     100.198
  O     -122.978     -46.330      98.805
  C     -123.739     -44.779     100.488
  O     -122.659     -43.818     100.517
  C     -124.723     -44.247      99.450
  O     -126.025     -44.789      99.579
  C     -124.690     -42.769      99.793
  O     -125.436     -42.536     101.002
  C     -123.178     -42.554     100.020
  N     -122.468     -42.149      98.803
  C     -122.953     -41.014      98.141
  O     -123.928     -40.403      98.574
  N     -122.340     -40.616      96.978
  C     -121.321     -41.276      96.524
  N     -120.757     -40.835      95.368
  C     -120.770     -42.467      97.195
  C     -121.383     -42.843      98.314
  O     -123.459     -48.782      98.971
  O     -122.419     -47.869      96.768
  H     -126.366     -42.752     100.800
  H     -124.387     -48.623      98.670
  H     -119.925     -42.993      96.772
  H     -121.033     -43.710      98.864
  H     -123.000     -41.799     100.795
  H     -125.129     -42.135      99.023
  H     -124.343     -44.381      98.431
  H     -124.188     -44.794     101.489
  H     -121.195     -40.051      94.900
  H     -122.257     -46.335     100.721
  H     -120.061     -41.364      94.859
  H     -123.931     -46.921     100.543
  P     -126.904     -44.920      98.241
  C     -128.379     -47.047      98.522
  O     -128.277     -45.635      98.654
  O     -126.135     -46.047      97.408
  O     -127.054     -43.651      97.461
  H     -126.193     -45.873      96.449
  H     -129.351     -47.365      98.837
  H     -127.635     -47.517      99.131
  H     -128.228     -47.321      97.499

 6  7  8  9  10  11  12  13  14  15  16  26  30  31  32  33  35 0
 6-311+G(2d,p)
 ****
 37  38 0
 6-311+G(2d,p)
 ****
 1  2  3  4  5  17  18  19  20  21  22  23  24  25 0
 3-21G
 ****
 27  28  29  34  36  39  40  41  42  43  44  45  46 0
 3-21G
 ****


