%nproc=1
%NoSave
%Mem=1900MB
#P OB98/GEN NMR

erre ene a

0 1
  C      192.899     109.971     120.869
  O      192.288     109.484     119.695
  H      193.952     109.673     120.861
  H      192.428     109.536     121.754
  H      192.843     111.061     120.910
  P      190.720     109.739     119.462
  C      190.116     107.268     119.107
  O      190.236     108.544     118.493
  C      190.315     106.146     118.088
  O      191.662     106.217     117.544
  C      190.128     104.737     118.672
  O      189.296     103.961     117.806
  C      191.535     104.160     118.677
  O      191.555     102.737     118.649
  C      192.137     104.861     117.453
  N      193.592     104.780     117.437
  C      194.141     103.674     116.780
  O      193.405     102.839     116.253
  N      195.504     103.511     116.784
  C      196.249     104.353     117.432
  N      197.588     104.118     117.419
  C      195.709     105.520     118.160
  C      194.384     105.674     118.121
  O      190.374     111.112     118.992
  O      190.032     109.359     120.855
  H      192.409     102.446     118.256
  H      189.157     109.810     120.914
  H      196.373     106.190     118.687
  H      193.896     106.500     118.626
  H      191.751     104.424     116.522
  H      192.056     104.488     119.588
  H      189.693     104.740     119.671
  H      189.634     106.319     117.244
  H      197.913     103.302     116.913
  H      189.127     107.193     119.571
  H      198.262     104.688     117.905
  H      190.884     107.184     119.884
  P      188.418     102.813     118.508
  C      189.074     100.676     117.189
  O      188.101     101.689     117.407
  O      187.005     103.525     118.751
  O      189.007     102.311     119.784
  H      186.871     103.678     119.705
  H      188.726     100.004     116.433
  H      189.237     100.136     118.098
  H      189.992     101.125     116.872

 6  7  8  9  10  11  12  13  14  15  16  26  30  31  32  33  35 0
 6-311+G(2d,p)
 ****
 37  38 0
 6-311+G(2d,p)
 ****
 1  2  3  4  5  17  18  19  20  21  22  23  24  25 0
 3-21G
 ****
 27  28  29  34  36  39  40  41  42  43  44  45  46 0
 3-21G
 ****


