%nproc=1
%NoSave
%Mem=1900MB
#P OB98/GEN NMR

erre ene a

0 1
  C      -91.584     462.053     356.403
  O      -91.033     460.788     356.021
  P      -90.095     460.781     354.716
  C      -91.033     458.493     353.927
  O      -89.881     459.255     354.266
  C      -90.919     457.067     354.479
  O      -90.577     457.051     355.876
  C      -92.208     456.267     354.355
  O      -92.348     455.776     353.033
  C      -91.991     455.165     355.384
  O      -91.217     454.080     354.839
  C      -91.197     455.886     356.485
  N      -94.678     454.479     359.895
  C      -94.227     453.820     358.763
  N      -94.762     452.600     358.525
  N      -93.332     454.305     357.950
  C      -92.883     455.536     358.317
  C      -93.229     456.271     359.429
  C      -94.229     455.720     360.322
  O      -94.639     456.252     361.347
  N      -92.516     457.442     359.499
  C      -91.834     457.466     358.366
  N      -91.973     456.303     357.645
  O      -88.667     461.222     355.283
  O      -90.572     461.704     353.641
  H      -90.415     454.436     354.414
  H      -88.447     462.122     354.968
  H      -95.375     454.054     360.486
  H      -91.208     458.281     358.040
  H      -90.387     455.257     356.873
  H      -92.935     454.733     355.724
  H      -95.454     452.162     359.113
  H      -93.072     456.891     354.641
  H      -94.440     452.101     357.704
  H      -90.107     456.568     353.924
  H      -91.151     458.457     352.842
  H      -91.918     458.997     354.323
  P      -93.801     455.279     352.566
  C      -92.765     453.161     351.481
  O      -93.595     454.299     351.325
  O      -94.440     456.597     351.915
  O      -94.659     454.759     353.668
  H      -95.364     456.699     352.211
  H      -93.117     452.367     350.822
  H      -92.770     452.796     352.513
  H      -91.737     453.427     351.200
  H      -92.186     461.930     357.279
  H      -92.188     462.434     355.606
  H      -90.790     462.740     356.609

 3  4  5  6  7  8  9  10  11  12  23  26  30  31 0
 6-311+G(2d,p)
 ****
 33  35  36  37  38 0
 6-311+G(2d,p)
 ****
 1  2  13  14  15  16  17  18  19  20  21  22  24  25 0
 3-21G
 ****
 27  28  29  32  34  39  40  41  42  43  44  45  46  47  48  49 0
 3-21G
 ****


