%nproc=1
%NoSave
%Mem=1900MB
#P OB98/GEN NMR

erre ene a

0 1
  C      584.413     405.656     -34.480
  O      583.496     404.953     -33.673
  H      585.229     406.021     -33.848
  H      583.914     406.516     -34.937
  H      584.833     405.018     -35.261
  P      582.468     403.946     -34.374
  C      583.578     401.692     -33.775
  O      583.285     402.624     -34.803
  C      582.841     400.367     -33.980
  O      583.184     399.814     -35.268
  C      583.206     399.318     -32.929
  O      582.434     399.379     -31.743
  C      582.946     398.016     -33.684
  O      581.581     397.587     -33.545
  C      583.244     398.385     -35.144
  N      585.908     394.514     -37.160
  C      584.610     394.514     -36.694
  N      583.962     393.334     -36.731
  N      584.023     395.579     -36.211
  C      584.824     396.670     -36.148
  C      586.140     396.783     -36.572
  C      586.753     395.618     -37.164
  O      587.897     395.565     -37.615
  N      586.646     398.025     -36.304
  C      585.681     398.632     -35.648
  N      584.530     397.880     -35.597
  O      582.168     404.637     -35.789
  O      581.196     403.694     -33.627
  H      581.345     397.639     -32.593
  H      581.262     404.423     -36.070
  H      586.301     393.681     -37.549
  H      585.736     399.635     -35.229
  H      582.486     397.979     -35.827
  H      583.568     397.204     -33.293
  H      584.393     392.468     -37.013
  H      584.270     399.369     -32.688
  H      583.079     393.247     -36.213
  H      581.759     400.561     -33.994
  H      583.267     402.154     -32.832
  H      584.661     401.517     -33.712
  P      583.108     399.714     -30.338
  C      582.305     402.209     -30.164
  O      583.369     401.286     -30.266
  O      584.584     399.108     -30.492
  O      582.400     399.179     -29.127
  H      584.637     398.232     -30.062
  H      582.698     403.204     -30.130
  H      581.748     402.014     -29.271
  H      581.663     402.108     -31.014

 6  7  8  9  10  11  12  13  14  15  26  29  33  34 0
 6-311+G(2d,p)
 ****
 36  38  39  40  41 0
 6-311+G(2d,p)
 ****
 1  2  3  4  5  16  17  18  19  20  21  22  23  24  25 0
 3-21G
 ****
 27  28  30  31  32  35  37  42  43  44  45  46  47 0
 3-21G
 ****
 48  49 0
 3-21G
 ****


