%nproc=1
%NoSave
%Mem=1900MB
#P OB98/GEN NMR

erre ene a

0 1
  C     -466.615    -249.400     494.872
  O     -466.183    -248.843     496.094
  H     -467.633    -249.773     494.993
  H     -465.964    -250.234     494.592
  H     -466.608    -248.644     494.080
  P     -464.748    -248.127     496.106
  C     -463.102    -249.915     497.053
  O     -463.662    -249.295     495.905
  C     -462.176    -251.061     496.625
  O     -461.033    -250.499     495.928
  C     -461.637    -251.877     497.807
  O     -461.550    -253.254     497.421
  C     -460.243    -251.309     498.016
  O     -459.355    -252.205     498.674
  C     -459.840    -250.993     496.574
  N     -458.757    -250.011     496.496
  C     -457.558    -250.419     495.925
  O     -457.365    -251.523     495.417
  N     -456.543    -249.492     495.957
  C     -456.603    -248.248     496.511
  O     -455.654    -247.479     496.528
  C     -457.898    -247.873     497.106
  C     -458.895    -248.759     497.073
  O     -464.554    -247.714     497.642
  O     -464.592    -246.970     495.180
  H     -464.902    -246.819     497.803
  H     -458.560    -251.699     498.948
  H     -455.661    -249.777     495.547
  H     -457.980    -246.897     497.558
  H     -459.861    -248.518     497.511
  H     -459.544    -251.913     496.051
  H     -460.302    -250.390     498.612
  H     -462.256    -251.789     498.705
  H     -462.709    -251.702     495.912
  H     -463.905    -250.315     497.673
  H     -462.544    -249.171     497.626
  P     -462.645    -254.260     498.029
  C     -462.024    -254.555     500.556
  O     -462.794    -253.868     499.579
  O     -461.836    -255.639     498.046
  O     -463.918    -254.281     497.246
  H     -460.892    -255.537     498.262
  H     -462.250    -254.166     501.527
  H     -460.983    -254.418     500.351
  H     -462.259    -255.598     500.526

 6  7  8  9  10  11  12  13  14  15  16  27  31  32  33  34  35 0
 6-311+G(2d,p)
 ****
 36  37 0
 6-311+G(2d,p)
 ****
 1  2  3  4  5  17  18  19  20  21  22  23  24  25 0
 3-21G
 ****
 26  28  29  30  38  39  40  41  42  43  44  45 0
 3-21G
 ****


