%nproc=1
%NoSave
%Mem=1900MB
#P OB98/GEN NMR

erre ene a

0 1
  C      159.960     303.990    1728.504
  O      160.637     303.058    1729.336
  P      162.140     303.286    1729.866
  C      161.544     303.767    1732.354
  O      162.111     304.301    1731.140
  C      161.270     304.909    1733.363
  O      160.346     305.881    1732.809
  C      160.647     304.452    1734.676
  O      161.608     303.817    1735.508
  C      160.055     305.743    1735.196
  O      161.097     306.527    1735.878
  C      159.612     306.461    1733.900
  N      158.158     306.349    1733.713
  C      157.378     307.246    1734.452
  O      157.886     308.013    1735.268
  N      155.998     307.210    1734.238
  C      155.484     306.349    1733.456
  N      154.122     306.376    1733.297
  C      156.256     305.345    1732.703
  C      157.582     305.401    1732.894
  O      163.117     303.680    1728.794
  O      162.571     301.892    1730.537
  H      160.662     307.388    1736.128
  H      163.549     301.770    1730.434
  H      155.805     304.600    1732.072
  H      158.250     304.703    1732.373
  H      159.888     307.516    1733.936
  H      159.257     305.589    1735.941
  H      159.814     303.735    1734.471
  H      162.221     305.433    1733.565
  H      153.614     307.086    1733.807
  H      162.268     303.080    1732.780
  H      153.629     305.731    1732.683
  H      160.594     303.225    1732.120
  P      161.837     302.214    1735.433
  C      164.169     302.428    1734.329
  O      162.857     301.924    1734.220
  O      160.576     301.379    1735.420
  O      162.740     301.905    1736.723
  H      162.536     301.015    1737.046
  H      164.830     301.857    1733.676
  H      164.516     302.356    1735.383
  H      164.188     303.486    1734.037
  H      158.979     303.624    1728.283
  H      160.507     304.118    1727.593
  H      159.884     304.930    1729.010

 3  4  5  6  7  8  9  10  11  12  13  23  27  28  29  30  32 0
 6-311+G(2d,p)
 ****
 34  35 0
 6-311+G(2d,p)
 ****
 1  2  14  15  16  17  18  19  20  21  22  24  25  26 0
 3-21G
 ****
 31  33  36  37  38  39  40  41  42  43  44  45  46 0
 3-21G
 ****


