%nproc=1
%NoSave
%Mem=1900MB
#P OB98/GEN NMR

erre ene a

0 1
  C     -350.274    -282.116    -436.121
  O     -350.822    -280.831    -436.314
  P     -351.424    -279.940    -435.124
  C     -353.677    -279.639    -436.387
  O     -353.030    -280.045    -435.182
  C     -355.221    -279.682    -436.291
  O     -355.634    -280.995    -435.828
  C     -355.708    -278.678    -435.225
  O     -355.883    -277.327    -435.569
  C     -356.921    -279.352    -434.595
  O     -358.163    -278.876    -435.132
  C     -356.725    -280.833    -434.911
  N     -358.741    -283.111    -430.857
  C     -359.375    -282.599    -431.972
  N     -360.731    -282.519    -431.904
  N     -358.749    -282.181    -433.040
  C     -357.386    -282.242    -432.915
  C     -356.650    -282.735    -431.866
  C     -357.359    -283.233    -430.711
  O     -356.838    -283.614    -429.673
  N     -355.302    -282.572    -432.066
  C     -355.227    -281.926    -433.218
  N     -356.470    -281.671    -433.751
  O     -350.799    -278.608    -434.890
  O     -351.067    -280.864    -433.836
  H     -358.102    -277.910    -435.228
  H     -350.887    -280.263    -433.091
  H     -359.283    -283.339    -430.032
  H     -354.302    -281.598    -433.684
  H     -357.615    -281.243    -435.423
  H     -356.948    -279.136    -433.513
  H     -361.231    -282.690    -431.038
  H     -354.936    -278.665    -434.441
  H     -361.206    -281.998    -432.618
  H     -355.681    -279.555    -437.272
  H     -353.322    -280.294    -437.187
  H     -353.368    -278.612    -436.641
  P     -356.399    -276.165    -434.595
  C     -358.366    -275.612    -436.163
  O     -357.987    -275.977    -434.848
  O     -355.793    -274.812    -435.226
  O     -356.001    -276.312    -433.166
  H     -355.746    -274.128    -434.529
  H     -359.394    -275.222    -436.131
  H     -358.334    -276.487    -436.813
  H     -357.712    -274.825    -436.564
  H     -349.940    -282.506    -437.060
  H     -351.020    -282.764    -435.710
  H     -349.446    -282.053    -435.446

 3  4  5  6  7  8  9  10  11  12  23  26  30  31 0
 6-311+G(2d,p)
 ****
 33  35  36  37  38 0
 6-311+G(2d,p)
 ****
 1  2  13  14  15  16  17  18  19  20  21  22  24  25 0
 3-21G
 ****
 27  28  29  32  34  39  40  41  42  43  44  45  46  47  48  49 0
 3-21G
 ****


