%nproc=1
%NoSave
%Mem=1900MB
#P OB98/GEN NMR

erre ene a

0 1
  C     -136.750    -780.963     837.198
  O     -136.042    -779.835     837.701
  P     -136.453    -778.318     837.445
  C     -137.399    -778.230     839.893
  O     -137.574    -777.909     838.516
  C     -137.900    -777.119     840.831
  O     -137.176    -775.891     840.555
  C     -139.373    -776.820     840.595
  O     -140.370    -777.622     841.199
  C     -139.519    -775.333     840.868
  O     -139.934    -775.062     842.210
  C     -138.103    -774.796     840.630
  N     -139.294    -770.397     838.293
  C     -139.678    -770.854     839.542
  N     -140.527    -770.075     840.243
  N     -139.272    -771.992     840.053
  C     -138.507    -772.719     839.210
  C     -138.073    -772.383     837.941
  C     -138.472    -771.091     837.415
  O     -138.156    -770.637     836.321
  N     -137.323    -773.380     837.379
  C     -137.317    -774.327     838.296
  N     -138.019    -773.971     839.436
  O     -136.713    -777.947     836.026
  O     -135.143    -777.490     837.938
  H     -139.749    -774.127     842.396
  H     -135.091    -776.698     837.361
  H     -139.610    -769.497     837.970
  H     -136.815    -775.287     838.196
  H     -137.780    -774.156     841.461
  H     -140.285    -774.890     840.214
  H     -140.964    -769.247     839.862
  H     -139.551    -776.935     839.504
  H     -140.982    -770.498     841.053
  H     -137.677    -777.375     841.878
  H     -136.337    -778.416     840.049
  H     -137.924    -779.169     840.122
  P     -141.845    -777.901     840.624
  C     -141.181    -780.378     840.717
  O     -141.850    -779.373     839.984
  O     -141.945    -776.948     839.334
  O     -142.966    -777.623     841.579
  H     -142.888    -776.849     839.066
  H     -140.984    -781.226     840.059
  H     -141.811    -780.697     841.551
  H     -140.225    -780.001     841.113
  H     -136.263    -781.861     837.516
  H     -136.766    -780.926     836.129
  H     -137.753    -780.950     837.571

 3  4  5  6  7  8  9  10  11  12  23  26  30  31 0
 6-311+G(2d,p)
 ****
 33  35  36  37  38 0
 6-311+G(2d,p)
 ****
 1  2  13  14  15  16  17  18  19  20  21  22  24  25 0
 3-21G
 ****
 27  28  29  32  34  39  40  41  42  43  44  45  46  47  48  49 0
 3-21G
 ****


