%nproc=1
%NoSave
%Mem=1900MB
#P OB98/GEN NMR

erre ene a

0 1
  C     -493.973     -38.958    -159.580
  O     -493.077     -40.047    -159.493
  H     -494.814     -39.137    -158.903
  H     -494.354     -38.862    -160.601
  H     -493.475     -38.031    -159.282
  P     -491.753     -39.965    -160.399
  C     -490.347     -38.707    -158.609
  O     -490.946     -38.673    -159.902
  C     -488.829     -38.796    -158.746
  O     -488.345     -37.680    -159.532
  C     -488.085     -38.715    -157.421
  O     -488.105     -39.941    -156.714
  C     -486.696     -38.315    -157.892
  O     -485.935     -39.450    -158.320
  C     -486.999     -37.396    -159.084
  N     -484.069     -33.249    -159.590
  C     -483.980     -34.486    -160.123
  N     -484.810     -35.533    -159.948
  C     -485.839     -35.196    -159.150
  C     -486.063     -33.975    -158.538
  C     -485.121     -32.963    -158.784
  N     -485.197     -31.712    -158.223
  N     -487.200     -34.023    -157.756
  C     -487.660     -35.252    -157.904
  N     -486.874     -35.995    -158.738
  O     -492.324     -39.531    -161.828
  O     -490.959     -41.224    -160.475
  H     -485.692     -39.937    -157.509
  H     -492.388     -40.316    -162.406
  H     -483.122     -34.657    -160.768
  H     -488.550     -35.649    -157.424
  H     -486.326     -37.582    -159.933
  H     -486.141     -37.822    -157.087
  H     -488.497     -37.909    -156.804
  H     -488.581     -39.719    -159.285
  H     -490.714     -39.583    -158.060
  H     -490.635     -37.800    -158.062
  H     -484.450     -31.057    -158.389
  H     -485.911     -31.526    -157.530
  P     -488.993     -40.021    -155.384
  C     -490.716     -41.519    -156.645
  O     -490.492     -40.377    -155.829
  O     -489.093     -38.497    -154.896
  O     -488.439     -40.905    -154.318
  H     -489.090     -38.460    -153.922
  H     -491.762     -41.612    -156.849
  H     -490.373     -42.395    -156.135
  H     -490.182     -41.410    -157.566

 6  7  8  9  10  11  12  13  14  15  25  28  32  33  34  35 0
 6-311+G(2d,p)
 ****
 36  37  40 0
 6-311+G(2d,p)
 ****
 1  2  3  4  5  16  17  18  19  20  21  22  23  24 0
 3-21G
 ****
 26  27  29  30  31  38  39 41  42  43  44  45  46  47  48 0
 3-21G
 ****


