%nproc=1
%NoSave
%Mem=1900MB
#P OB98/GEN NMR

erre ene a

0 1
  C     -231.888     135.923    -757.024
  O     -232.889     135.003    -756.621
  P     -234.414     135.502    -756.637
  C     -234.637     135.179    -759.210
  O     -234.686     136.079    -758.111
  C     -235.660     135.582    -760.267
  O     -236.998     135.238    -759.843
  C     -235.703     137.073    -760.559
  O     -234.674     137.477    -761.450
  C     -237.062     137.202    -761.221
  O     -236.975     136.802    -762.606
  C     -237.907     136.200    -760.428
  N     -241.983     139.031    -759.432
  C     -241.601     138.411    -760.609
  N     -242.389     138.626    -761.685
  N     -240.545     137.648    -760.715
  C     -239.846     137.533    -759.557
  C     -240.127     138.092    -758.334
  C     -241.291     138.943    -758.235
  O     -241.651     139.569    -757.237
  N     -239.196     137.740    -757.398
  C     -238.349     136.963    -758.048
  N     -238.680     136.840    -759.376
  O     -234.379     136.819    -755.727
  O     -235.404     134.504    -756.141
  H     -236.468     135.969    -762.629
  H     -235.283     137.057    -755.444
  H     -242.796     139.615    -759.402
  H     -237.487     136.482    -757.612
  H     -238.598     135.648    -761.069
  H     -237.444     138.228    -761.217
  H     -243.180     139.254    -761.682
  H     -235.691     137.658    -759.633
  H     -242.098     138.234    -762.571
  H     -235.441     135.015    -761.182
  H     -234.851     134.168    -758.856
  H     -233.625     135.185    -759.635
  P     -234.464     139.060    -761.641
  C     -233.479     139.506    -759.274
  O     -234.568     139.682    -760.161
  O     -235.823     139.524    -762.345
  O     -233.261     139.430    -762.435
  H     -235.675     140.328    -762.873
  H     -233.598     140.203    -758.439
  H     -232.526     139.711    -759.773
  H     -233.483     138.484    -758.886
  H     -230.928     135.455    -756.963
  H     -231.910     136.778    -756.381
  H     -232.071     136.231    -758.032

 3  4  5  6  7  8  9  10  11  12  23  26  30  31 0
 6-311+G(2d,p)
 ****
 33  35  36  37  38 0
 6-311+G(2d,p)
 ****
 1  2  13  14  15  16  17  18  19  20  21  22  24  25 0
 3-21G
 ****
 27  28  29  32  34  39  40  41  42  43  44  45  46  47  48  49 0
 3-21G
 ****


