%nproc=1
%NoSave
%Mem=1900MB
#P OB98/GEN NMR

erre ene a

0 1
  C       37.751     338.476     -33.297
  O       38.557     338.883     -32.204
  P       39.617     337.884     -31.523
  C       39.313     335.701     -30.169
  O       38.750     336.942     -30.555
  C       38.307     334.894     -29.346
  O       37.220     334.483     -30.215
  C       38.887     333.625     -28.701
  O       38.229     333.453     -27.441
  C       38.480     332.535     -29.672
  O       38.465     331.249     -29.075
  C       37.107     333.046     -30.124
  N       36.684     332.470     -31.393
  C       35.500     331.737     -31.411
  O       34.845     331.562     -30.382
  N       35.069     331.207     -32.605
  C       35.804     331.327     -33.668
  N       35.307     330.838     -34.836
  C       37.118     332.001     -33.667
  C       37.476     332.562     -32.516
  O       40.774     338.552     -30.867
  O       40.019     336.876     -32.695
  H       38.364     330.583     -29.780
  H       40.747     337.221     -33.267
  H       37.704     332.051     -34.572
  H       38.412     333.099     -32.430
  H       36.354     332.840     -29.353
  H       39.186     332.512     -30.510
  H       39.966     333.692     -28.540
  H       37.880     335.551     -28.579
  H       34.338     330.541     -34.828
  H       40.192     335.897     -29.552
  H       35.652     331.171     -35.729
  H       39.629     335.145     -31.058
  P       38.591     332.156     -26.566
  C       38.669     329.615     -27.082
  O       38.070     330.864     -27.354
  O       37.526     332.268     -25.366
  O       39.976     332.096     -26.007
  H       37.877     331.803     -24.585
  H       38.185     328.851     -27.703
  H       38.537     329.343     -26.033
  H       39.734     329.640     -27.328
  H       37.120     339.287     -33.596
  H       37.147     337.643     -33.004
  H       38.378     338.191     -34.116

 3  4  5  6  7  8  9  10  11  12  13  23  27  28  29  30  32 0
 6-311+G(2d,p)
 ****
 34  35 0
 6-311+G(2d,p)
 ****
 1  2  14  15  16  17  18  19  20  21  22  24  25  26 0
 3-21G
 ****
 31  33  36  37  38  39  40  41  42  43  44  45  46 0
 3-21G
 ****


