%nproc=1
%NoSave
%Mem=1900MB
#P OB98/GEN NMR

erre ene a

0 1
  C       91.876    -207.863     893.590
  O       93.269    -207.659     893.485
  H       91.593    -208.791     893.094
  H       91.608    -207.932     894.649
  H       91.334    -207.023     893.148
  P       93.874    -207.561     892.001
  C       94.007    -204.980     892.213
  O       93.543    -206.088     891.454
  C       93.697    -203.672     891.480
  O       92.255    -203.474     891.495
  C       94.357    -202.426     892.086
  O       95.174    -201.774     891.104
  C       93.192    -201.505     892.425
  O       93.450    -200.132     892.127
  C       92.045    -202.059     891.590
  N       87.696    -199.465     890.990
  C       88.623    -199.874     890.094
  N       89.703    -200.660     890.302
  C       89.772    -201.041     891.589
  C       88.892    -200.720     892.612
  C       87.823    -199.874     892.276
  N       86.915    -199.405     893.198
  N       89.300    -201.290     893.805
  C       90.429    -201.907     893.519
  N       90.763    -201.771     892.195
  O       92.902    -208.507     891.148
  O       95.302    -207.973     891.871
  H       94.325    -199.923     892.513
  H       93.435    -209.108     890.591
  H       88.473    -199.533     889.074
  H       91.058    -202.425     894.227
  H       92.044    -201.648     890.568
  H       92.979    -201.594     893.496
  H       94.955    -202.652     892.975
  H       93.993    -203.791     890.432
  H       95.089    -205.055     892.356
  H       86.246    -198.711     892.894
  H       87.064    -199.620     894.177
  H       93.523    -204.995     893.198
  P       96.767    -201.906     891.291
  C       97.064    -203.301     889.108
  O       97.231    -203.235     890.525
  O       96.915    -202.306     892.841
  O       97.524    -200.664     890.959
  H       97.783    -202.010     893.177
  H       97.419    -204.245     888.751
  H       97.620    -202.512     888.646
  H       96.027    -203.195     888.866

 6  7  8  9  10  11  12  13  14  15  25  28  32  33  34  35 0
 6-311+G(2d,p)
 ****
 36  39  40 0
 6-311+G(2d,p)
 ****
 1  2  3  4  5  16  17  18  19  20  21  22  23  24 0
 3-21G
 ****
 26  27  29  30  31  37  38  41  42  43  44  45  46  47  48 0
 3-21G
 ****


