%nproc=1
%NoSave
%Mem=1900MB
#P OB98/GEN NMR

erre ene a

0 1
  C      153.968     -99.354    -421.215
  O      153.217    -100.394    -421.814
  P      153.522    -101.927    -421.453
  C      154.464    -102.707    -423.714
  O      154.758    -102.417    -422.349
  C      155.752    -102.758    -424.533
  O      156.468    -101.498    -424.457
  C      156.752    -103.806    -424.069
  O      156.339    -105.117    -424.408
  C      158.019    -103.332    -424.765
  O      158.041    -103.755    -426.136
  C      157.865    -101.797    -424.680
  N      158.710    -101.213    -423.642
  C      159.800    -100.463    -424.087
  O      160.063    -100.397    -425.294
  N      160.580     -99.823    -423.155
  C      160.362    -100.013    -421.890
  N      161.124     -99.303    -421.013
  C      159.312    -100.920    -421.380
  C      158.516    -101.467    -422.299
  O      152.340    -102.831    -421.469
  O      154.167    -101.853    -419.979
  H      153.698    -102.490    -419.406
  H      157.787    -104.695    -426.145
  H      159.217    -101.097    -420.319
  H      157.706    -102.132    -422.020
  H      158.117    -101.339    -425.642
  H      158.923    -103.722    -424.291
  H      156.883    -103.732    -422.986
  H      155.480    -102.930    -425.587
  H      161.824     -98.676    -421.403
  H      153.807    -101.926    -424.104
  H      160.832     -99.123    -420.059
  H      153.935    -103.663    -423.775
  P      156.908    -106.317    -423.504
  C      158.559    -107.402    -425.184
  O      158.400    -106.633    -424.005
  O      156.068    -107.585    -423.990
  O      156.769    -106.101    -422.026
  H      155.880    -108.173    -423.229
  H      159.563    -107.231    -425.574
  H      157.827    -107.118    -425.947
  H      158.443    -108.460    -424.940
  H      153.621     -98.409    -421.578
  H      155.002     -99.473    -421.462
  H      153.848     -99.394    -420.152

 3  4  5  6  7  8  9  10  11  12  13  24  27  28  29  30  32 0
 6-311+G(2d,p)
 ****
 34  35 0
 6-311+G(2d,p)
 ****
 1  2  14  15  16  17  18  19  20  21  22  23  25  26 0
 3-21G
 ****
 31  33  36  37  38  39  40  41  42  43  44  45  46 0
 3-21G
 ****


