%nproc=1
%NoSave
%Mem=1900MB
#P OB98/GEN NMR

erre ene a

0 1
  C     -167.471     384.054     468.018
  O     -167.019     382.749     468.326
  H     -167.962     384.033     467.042
  H     -166.621     384.740     467.972
  H     -168.188     384.395     468.769
  P     -166.299     382.562     469.749
  C     -163.964     383.211     468.786
  O     -165.000     383.506     469.713
  C     -163.312     384.510     468.294
  O     -162.628     385.141     469.418
  C     -162.258     384.291     467.192
  O     -162.237     385.454     466.348
  C     -160.973     384.230     467.998
  O     -159.856     384.412     467.163
  C     -161.253     385.334     469.012
  N     -156.677     386.711     470.786
  C     -157.310     386.977     469.622
  N     -158.538     386.580     469.229
  C     -159.132     385.855     470.195
  C     -158.610     385.501     471.426
  C     -157.315     385.959     471.710
  N     -156.655     385.675     472.886
  N     -159.515     384.724     472.128
  C     -160.560     384.620     471.337
  N     -160.372     385.289     470.159
  O     -165.696     381.081     469.660
  O     -167.173     382.743     470.943
  H     -159.033     384.487     467.685
  H     -166.332     380.442     470.035
  H     -156.760     387.589     468.914
  H     -161.469     384.072     471.560
  H     -161.169     386.337     468.575
  H     -160.862     383.258     468.491
  H     -162.446     383.401     466.584
  H     -164.096     385.203     467.966
  H     -164.393     382.666     467.942
  H     -163.210     382.587     469.272
  H     -155.715     386.016     473.001
  H     -157.099     385.083     473.574
  P     -163.453     385.709     465.337
  C     -163.421     384.000     463.365
  O     -163.920     384.335     464.654
  O     -162.727     386.461     464.119
  O     -164.564     386.555     465.874
  H     -163.256     387.237     463.846
  H     -163.828     383.059     463.058
  H     -162.354     383.931     463.402
  H     -163.705     384.757     462.665

 6  7  8  9  10  11  12  13  14  15  25  28  32  33  34  35 0
 6-311+G(2d,p)
 ****
 36  37  40 0
 6-311+G(2d,p)
 ****
 1  2  3  4  5  16  17  18  19  20  21  22  23  24 0
 3-21G
 ****
 26  27  29  30  31  38  39 41  42  43  44  45  46  47  48 0
 3-21G
 ****


