%nproc=1
%NoSave
%Mem=1900MB
#P OB98/GEN NMR

erre ene a

0 1
  C      537.943     274.668    -284.992
  O      537.767     275.738    -285.900
  H      537.690     273.734    -285.500
  H      537.291     274.789    -284.127
  H      538.985     274.619    -284.669
  P      538.042     277.215    -285.326
  C      535.529     277.625    -285.731
  O      536.853     278.106    -285.942
  C      534.508     278.558    -286.387
  O      534.039     279.505    -285.389
  C      535.088     279.371    -287.556
  O      534.076     279.532    -288.554
  C      535.382     280.723    -286.919
  O      535.425     281.773    -287.883
  C      534.243     280.828    -285.906
  N      533.067     285.368    -283.901
  C      532.476     284.617    -284.851
  N      532.847     283.405    -285.310
  C      533.919     282.946    -284.639
  C      534.634     283.594    -283.649
  C      534.172     284.871    -283.282
  N      534.786     285.653    -282.335
  N      535.700     282.819    -283.237
  C      535.629     281.718    -283.962
  N      534.569     281.760    -284.838
  O      539.417     277.748    -285.554
  O      537.605     277.059    -283.796
  H      534.504     281.990    -288.145
  H      536.747     276.598    -283.711
  H      531.589     285.060    -285.315
  H      536.307     280.875    -283.901
  H      533.297     281.179    -286.360
  H      536.348     280.690    -286.414
  H      535.974     278.921    -287.990
  H      533.637     277.971    -286.704
  H      535.319     277.559    -284.655
  H      534.394     286.565    -282.131
  H      535.607     285.309    -281.854
  H      535.460     276.622    -286.165
  P      533.510     278.236    -289.297
  C      533.614     278.818    -291.805
  O      532.781     278.686    -290.651
  O      532.713     277.293    -288.446
  O      534.838     277.518    -289.839
  H      534.776     276.554    -289.700
  H      533.019     279.121    -292.641
  H      534.078     277.878    -292.019
  H      534.368     279.554    -291.618

 6  7  8  9  10  11  12  13  14  15  25  28  32  33  34  35 0
 6-311+G(2d,p)
 ****
 36  39  40 0
 6-311+G(2d,p)
 ****
 1  2  3  4  5  16  17  18  19  20  21  22  23  24 0
 3-21G
 ****
 26  27  29  30  31  37  38  41  42  43  44  45  46  47 0
 3-21G
 ****
 48 0
 3-21G
 ****


