%nproc=1
%NoSave
%Mem=1900MB
#P OB98/GEN NMR

erre ene a

0 1
  C      413.879     205.228     259.513
  O      414.082     206.511     258.933
  P      415.169     207.469     259.632
  C      413.329     208.941     260.744
  O      414.465     208.101     260.922
  C      412.993     209.661     262.046
  O      412.463     208.727     263.009
  C      414.185     210.317     262.730
  O      414.557     211.518     262.076
  C      413.632     210.507     264.137
  O      412.766     211.660     264.178
  C      412.813     209.219     264.332
  N      414.532     207.729     268.923
  C      413.864     208.840     268.527
  N      413.461     209.173     267.289
  C      413.802     208.219     266.401
  C      414.500     207.050     266.655
  C      414.867     206.812     267.990
  N      415.549     205.680     268.387
  N      414.686     206.330     265.491
  C      414.105     207.050     264.552
  N      413.545     208.192     265.055
  O      415.266     208.703     258.619
  O      416.501     206.833     259.875
  H      412.338     211.667     265.056
  H      416.173     209.063     258.593
  H      413.622     209.548     269.311
  H      414.058     206.776     263.508
  H      411.874     209.399     264.874
  H      414.412     210.657     264.893
  H      415.042     209.631     262.757
  H      412.218     210.410     261.832
  H      412.470     208.330     260.447
  H      415.904     205.661     269.334
  H      415.928     205.075     267.670
  H      413.538     209.654     259.942
  P      415.976     212.160     262.465
  C      414.759     214.279     263.267
  O      415.610     213.209     263.635
  O      416.254     213.120     261.211
  O      417.047     211.176     262.787
  H      415.483     213.670     260.997
  H      414.555     214.878     264.155
  H      413.812     213.897     262.873
  H      415.244     214.911     262.520
  H      413.136     204.698     258.955
  H      413.551     205.342     260.525
  H      414.797     204.679     259.495

 3  4  5  6  7  8  9  10  11  12  22  25  29  30  31  32 0
 6-311+G(2d,p)
 ****
 33  36  37 0
 6-311+G(2d,p)
 ****
 1  2  13  14  15  16  17  18  19  20  21  23  24  26 0
 3-21G
 ****
 27  28  34  35  38  39  40  41  42  43  44  45  46  47  48 0
 3-21G
 ****


