%nproc=1
%NoSave
%Mem=1900MB
#P OB98/GEN NMR

erre ene a

0 1
  C       57.983      67.025    -192.451
  O       58.038      66.096    -191.384
  H       58.320      66.531    -193.366
  H       58.646      67.870    -192.241
  H       56.959      67.381    -192.596
  P       57.366      66.554    -190.005
  C       57.759      68.567    -188.369
  O       58.277      67.733    -189.397
  C       58.607      69.831    -188.243
  O       58.311      70.754    -189.311
  C       58.338      70.641    -186.985
  O       58.856      70.029    -185.824
  C       59.027      71.952    -187.340
  O       60.430      71.907    -187.056
  C       58.779      72.050    -188.865
  N       57.850      73.116    -189.193
  C       58.381      74.413    -189.141
  O       59.568      74.582    -188.855
  N       57.548      75.475    -189.379
  C       56.291      75.266    -189.617
  N       55.512      76.366    -189.812
  C       55.689      73.918    -189.679
  C       56.518      72.897    -189.457
  O       57.677      65.318    -189.041
  O       55.918      66.905    -190.100
  H       60.511      71.772    -186.089
  H       58.606      65.032    -189.057
  H       54.636      73.799    -189.894
  H       56.161      71.873    -189.483
  H       59.722      72.242    -189.396
  H       58.614      72.791    -186.772
  H       57.261      70.838    -186.884
  H       59.664      69.542    -188.314
  H       55.953      77.273    -189.707
  H       57.734      68.031    -187.415
  H       54.510      76.330    -189.926
  H       56.728      68.823    -188.635
  P       58.472      70.557    -184.361
  C       59.267      72.484    -182.842
  O       59.212      71.974    -184.171
  O       58.704      69.590    -183.251
  O       56.942      71.003    -184.528
  H       56.787      71.696    -185.195
  H       59.779      73.424    -182.841
  H       59.791      71.792    -182.216
  H       58.273      72.619    -182.470

 6  7  8  9  10  11  12  13  14  15  16  26  30  31  32  33  35 0
 6-311+G(2d,p)
 ****
 37  38 0
 6-311+G(2d,p)
 ****
 1  2  3  4  5  17  18  19  20  21  22  23  24  25 0
 3-21G
 ****
 27  28  29  34  36  39  40  41  42  43  44  45  46 0
 3-21G
 ****


