%nproc=1
%NoSave
%Mem=1900MB
#P OB98/GEN NMR

erre ene a

0 1
  C      582.977    -442.036     108.312
  O      584.023    -442.997     108.223
  P      584.021    -443.968     106.949
  C      582.290    -445.628     105.957
  O      582.685    -444.858     107.076
  C      580.804    -445.976     106.041
  O      580.023    -444.800     105.735
  C      580.344    -447.038     105.046
  O      580.644    -448.353     105.516
  C      578.849    -446.777     105.033
  O      578.227    -447.427     106.157
  C      578.763    -445.245     105.169
  N      575.351    -442.903     102.252
  C      575.210    -443.483     103.499
  N      573.978    -443.395     104.052
  N      576.172    -444.090     104.138
  C      577.349    -444.067     103.473
  C      577.626    -443.526     102.229
  C      576.534    -442.895     101.516
  O      576.590    -442.429     100.372
  N      578.945    -443.685     101.898
  C      579.479    -444.275     102.951
  N      578.547    -444.558     103.924
  O      585.187    -445.006     107.288
  O      584.237    -443.303     105.628
  H      578.232    -448.400     105.962
  H      585.545    -445.387     106.463
  H      574.583    -442.446     101.800
  H      580.541    -444.523     103.052
  H      577.966    -444.971     105.877
  H      578.361    -447.177     104.130
  H      573.235    -442.834     103.674
  H      580.769    -446.865     104.048
  H      573.853    -443.781     104.994
  H      580.586    -446.290     107.074
  H      582.873    -446.568     105.939
  H      582.509    -445.065     105.043
  P      580.344    -449.543     104.483
  C      578.323    -449.864     102.882
  O      578.778    -449.454     104.148
  O      580.474    -450.867     105.388
  O      581.266    -449.592     103.302
  H      580.717    -451.632     104.843
  H      578.887    -450.736     102.522
  H      578.423    -449.044     102.169
  H      577.261    -450.151     102.965
  H      583.098    -441.458     109.204
  H      582.033    -442.538     108.338
  H      583.014    -441.389     107.461

 3  4  5  6  7  8  9  10  11  12  23  26  30  31  33  0
 6-311+G(2d,p)
 ****
 35  36  37  38 0
 6-311+G(2d,p)
 ****
 1  2  13  14  15  16  17  18  19  20  21  22  24  25  27  28  29 0
 3-21G
 ****
 32  34  39  40  41  42  43  44  45  46  47  48  49 0
 3-21G
 ****


