%nproc=1
%NoSave
%Mem=1900MB
#P OB98/GEN NMR

erre ene a

0 1
  C       74.708    -305.082      -0.982
  O       74.500    -305.416       0.395
  P       74.704    -304.220       1.450
  C       77.078    -305.002       2.145
  O       76.282    -303.957       1.601
  C       78.577    -304.716       1.969
  O       78.904    -304.480       0.569
  C       79.066    -303.487       2.752
  O       80.407    -303.766       3.180
  C       79.104    -302.408       1.687
  O       79.924    -301.309       2.078
  C       79.613    -303.222       0.497
  N       81.929    -301.230      -3.523
  C       82.460    -301.707      -2.343
  N       83.805    -301.696      -2.234
  N       81.731    -302.156      -1.348
  C       80.396    -302.140      -1.619
  C       79.754    -301.707      -2.757
  C       80.574    -301.180      -3.830
  O       80.154    -300.751      -4.900
  N       78.386    -301.877      -2.660
  C       78.218    -302.355      -1.435
  N       79.402    -302.580      -0.786
  O       74.290    -304.890       2.844
  O       73.881    -303.007       1.151
  H       80.084    -300.758       1.283
  H       73.385    -304.626       3.093
  H       82.541    -300.878      -4.248
  H       77.261    -302.573      -0.985
  H       80.688    -303.429       0.568
  H       78.091    -302.024       1.493
  H       84.429    -301.416      -2.974
  H       78.442    -303.213       3.608
  H       84.227    -302.087      -1.389
  H       79.139    -305.606       2.294
  H       76.839    -305.950       1.653
  H       76.822    -305.132       3.202
  P       80.608    -304.550       4.562
  C       79.989    -302.621       6.179
  O       79.628    -303.872       5.634
  O       82.064    -304.080       5.039
  O       80.537    -306.043       4.452
  H       82.535    -304.833       5.446
  H       79.081    -302.097       6.490
  H       80.520    -301.999       5.450
  H       80.628    -302.773       7.055
  H       74.546    -305.949      -1.588
  H       75.711    -304.735      -1.117
  H       74.023    -304.312      -1.270

 3  4  5  6  7  8  9  10  11  12  23  26  30  31 0
 6-311+G(2d,p)
 ****
 33  35  36  37  38 0
 6-311+G(2d,p)
 ****
 1  2  13  14  15  16  17  18  19  20  21  22  24  25 0
 3-21G
 ****
 27  28  29  32  34  39  40  41  42  43  44  45  46  47  48  49 0
 3-21G
 ****


