%nproc=1
%NoSave
%Mem=1900MB
#P OB98/GEN NMR

erre ene a

0 1
  C      846.920    -924.610      96.294
  O      845.880    -923.920      95.621
  H      847.752    -923.920      96.446
  H      847.273    -925.448      95.684
  H      846.577    -924.972      97.262
  P      844.476    -924.669      95.408
  C      843.685    -924.446      97.853
  O      844.080    -925.333      96.810
  C      842.213    -924.663      98.182
  O      841.977    -926.047      98.543
  C      841.720    -923.837      99.373
  O      841.511    -922.493      98.999
  C      840.457    -924.609      99.743
  O      839.358    -924.233      98.882
  C      840.885    -926.072      99.502
  N      841.259    -926.752     100.724
  C      840.223    -927.128     101.567
  O      839.031    -926.871     101.356
  N      840.597    -927.785     102.724
  C      841.880    -928.004     103.129
  O      842.157    -928.520     104.212
  C      842.935    -927.571     102.212
  C      842.595    -926.981     101.069
  O      844.405    -925.585      94.224
  O      843.431    -923.456      95.267
  H      838.606    -924.809      99.133
  H      843.166    -923.361      94.338
  H      839.853    -928.048     103.357
  H      843.965    -927.741     102.505
  H      843.347    -926.645     100.372
  H      840.074    -926.619      99.026
  H      840.140    -924.400     100.761
  H      842.430    -923.903     100.192
  H      841.620    -924.453      97.269
  H      843.836    -923.418      97.513
  H      844.318    -924.634      98.734
  P      841.298    -921.371     100.127
  C      843.713    -920.481      99.940
  O      842.733    -921.078     100.796
  O      840.203    -921.644     101.105
  O      841.013    -920.030      99.305
  H      840.121    -919.691      99.533
  H      844.621    -920.333     100.486
  H      843.351    -919.538      99.587
  H      843.899    -921.126      99.107

 6  7  8  9  10  11  12  13  14  15  16  26  31  32  33  34  35 0
 6-311+G(2d,p)
 ****
 36  37 0
 6-311+G(2d,p)
 ****
 1  2  3  4  5  17  18  19  20  21  22  23  24  25 0
 3-21G
 ****
 27  28  29  30  38  39  40  41  42  43  44  45 0
 3-21G
 ****


