%nproc=1
%NoSave
%Mem=1900MB
#P OB98/GEN NMR

erre ene a

0 1
  C      -76.734       1.845      57.765
  O      -76.438       0.556      58.275
  P      -76.991      -0.724      57.486
  C      -78.739      -1.208      59.349
  O      -78.499      -0.979      57.968
  C      -80.234      -1.410      59.604
  O      -80.950      -0.181      59.273
  C      -80.863      -2.542      58.778
  O      -81.894      -3.140      59.577
  C      -81.490      -1.791      57.617
  O      -82.497      -2.535      56.950
  C      -81.996      -0.542      58.346
  N      -82.314       0.558      57.437
  C      -83.636       0.988      57.392
  O      -84.543       0.500      58.067
  N      -83.911       1.977      56.486
  C      -83.037       2.502      55.578
  O      -83.375       3.302      54.714
  C      -81.654       2.010      55.673
  C      -81.359       1.077      56.582
  O      -76.173      -1.936      58.134
  O      -76.821      -0.663      56.004
  H      -82.779      -2.017      56.174
  H      -75.432      -2.196      57.554
  H      -84.862       2.309      56.448
  H      -80.929       2.420      54.981
  H      -80.353       0.681      56.659
  H      -82.883      -0.787      58.945
  H      -80.714      -1.540      56.885
  H      -80.143      -3.300      58.453
  H      -80.383      -1.593      60.676
  H      -78.390      -0.346      59.920
  H      -78.169      -2.083      59.681
  P      -81.971      -4.745      59.626
  C      -83.529      -4.923      57.534
  O      -82.291      -5.235      58.136
  O      -83.357      -4.953      60.406
  O      -80.802      -5.383      60.303
  H      -84.054      -4.353      60.095
  H      -83.896      -3.944      57.853
  H      -84.262      -5.688      57.797
  H      -83.404      -4.915      56.448
  H      -76.298       2.588      58.399
  H      -77.795       1.981      57.733
  H      -76.333       1.939      56.777

 3  4  5  6  7  8  9  10  11  12  13  23  28  29  30  31  32 0
 6-311+G(2d,p)
 ****
 33  34 0
 6-311+G(2d,p)
 ****
 1  2  14  15  16  17  18  19  20  21  22  24  25  26 0
 3-21G
 ****
 27  35  36  37  38  39  40  41  42  43  44  45 0
 3-21G
 ****


