%nproc=1
%NoSave
%Mem=1900MB
#P OB98/GEN NMR

erre ene a

0 1
  C     -288.621    -642.690      58.530
  O     -287.343    -643.140      58.961
  P     -286.253    -642.030      59.374
  C     -284.950    -642.601      57.191
  O     -285.502    -641.590      58.019
  C     -283.562    -642.175      56.698
  O     -283.019    -643.235      55.857
  C     -283.536    -640.893      55.870
  O     -282.280    -640.238      56.124
  C     -283.557    -641.395      54.427
  O     -283.060    -640.438      53.491
  C     -282.696    -642.657      54.571
  N     -282.182    -643.625      49.629
  C     -281.866    -642.481      50.354
  N     -281.270    -641.488      49.651
  N     -282.109    -642.335      51.620
  C     -282.691    -643.426      52.191
  C     -283.086    -644.598      51.577
  C     -282.780    -644.763      50.170
  O     -282.964    -645.788      49.515
  N     -283.720    -645.433      52.454
  C     -283.632    -644.803      53.619
  N     -282.977    -643.605      53.515
  O     -285.160    -642.885      60.161
  O     -286.772    -640.877      60.182
  H     -282.831    -640.928      52.674
  H     -285.321    -642.875      61.122
  H     -281.956    -643.686      48.654
  H     -284.023    -645.174      54.549
  H     -281.623    -642.436      54.549
  H     -284.585    -641.652      54.149
  H     -281.034    -641.543      48.684
  H     -284.360    -640.205      56.085
  H     -281.009    -640.658      50.170
  H     -282.899    -642.077      57.565
  H     -285.594    -642.736      56.316
  H     -284.889    -643.547      57.729
  P     -282.311    -638.695      56.591
  C     -282.179    -637.751      54.182
  O     -282.926    -637.845      55.384
  O     -280.755    -638.302      56.564
  O     -282.895    -638.458      57.939
  H     -280.579    -637.629      57.257
  H     -282.869    -637.501      53.362
  H     -281.673    -638.689      53.936
  H     -281.436    -636.943      54.266
  H     -289.234    -643.534      58.291
  H     -288.508    -642.074      57.663
  H     -289.082    -642.124      59.312

 3  4  5  6  7  8  9  10  11  12  23  26  30  31 0
 6-311+G(2d,p)
 ****
 33  35  36  37  38 0
 6-311+G(2d,p)
 ****
 1  2  13  14  15  16  17  18  19  20  21  22  24  25 0
 3-21G
 ****
 27  28  29  32  34  39  40  41  42  43  44  45  46  47  48  49 0
 3-21G
 ****


