%nproc=1
%NoSave
%Mem=1900MB
#P OB98/GEN NMR

erre ene a

0 1
  C       38.914     -79.965    -128.436
  O       38.844     -78.809    -127.619
  P       37.878     -78.846    -126.341
  C       36.054     -77.466    -127.572
  O       36.368     -78.652    -126.855
  C       34.567     -77.424    -127.926
  O       34.239     -78.553    -128.780
  C       33.642     -77.494    -126.708
  O       32.463     -76.714    -126.960
  C       33.221     -78.948    -126.665
  O       31.988     -79.118    -125.967
  C       33.153     -79.271    -128.157
  N       30.572     -83.599    -128.551
  C       30.108     -82.298    -128.538
  N       28.765     -82.139    -128.544
  N       30.886     -81.249    -128.526
  C       32.206     -81.563    -128.516
  C       32.788     -82.810    -128.543
  C       31.913     -83.962    -128.544
  O       32.260     -85.140    -128.527
  N       34.156     -82.726    -128.559
  C       34.407     -81.433    -128.498
  N       33.257     -80.688    -128.433
  O       38.205     -77.461    -125.606
  O       38.099     -80.002    -125.424
  H       32.161     -78.907    -125.029
  H       38.747     -77.627    -124.811
  H       29.929     -84.374    -128.549
  H       35.393     -80.988    -128.470
  H       32.220     -78.908    -128.605
  H       33.985     -79.547    -126.158
  H       28.113     -82.905    -128.484
  H       34.101     -77.163    -125.770
  H       28.400     -81.195    -128.488
  H       34.372     -76.515    -128.509
  H       36.641     -77.438    -128.490
  H       36.321     -76.592    -126.967
  P       31.977     -75.762    -125.760
  C       29.917     -77.208    -125.097
  O       31.191     -76.714    -124.739
  O       30.821     -74.884    -126.431
  O       33.062     -74.924    -125.168
  H       30.728     -74.034    -125.962
  H       29.966     -78.300    -125.164
  H       29.570     -76.809    -126.053
  H       29.199     -76.933    -124.320
  H       39.594     -79.791    -129.243
  H       37.943     -80.183    -128.829
  H       39.258     -80.794    -127.853

 3  4  5  6  7  8  9  10  11  12  23  26  30  31 0
 6-311+G(2d,p)
 ****
 33  35  36  37  38 0
 6-311+G(2d,p)
 ****
 1  2  13  14  15  16  17  18  19  20  21  22  24  25 0
 3-21G
 ****
 27  28  29  32  34  39  40  41  42  43  44  45  46  47  48  49 0
 3-21G
 ****


