%nproc=1
%NoSave
%Mem=1900MB
#P OB98/GEN NMR

erre ene a

0 1
  C       18.981    -364.158     148.908
  O       18.026    -363.442     148.142
  P       17.396    -364.163     146.854
  C       15.737    -365.677     148.181
  O       16.877    -365.603     147.338
  C       14.492    -366.064     147.376
  O       14.707    -367.388     146.818
  C       13.188    -366.129     148.188
  O       12.131    -365.747     147.301
  C       13.065    -367.600     148.531
  O       11.730    -367.980     148.856
  C       13.617    -368.232     147.260
  N       13.462    -373.045     145.691
  C       12.731    -371.951     145.259
  N       11.886    -372.156     144.224
  N       12.826    -370.756     145.792
  C       13.726    -370.704     146.810
  C       14.467    -371.719     147.355
  C       14.388    -373.022     146.730
  O       15.067    -374.000     147.023
  N       15.193    -371.292     148.434
  C       14.959    -369.997     148.498
  N       14.099    -369.583     147.502
  O       18.687    -364.501     145.967
  O       16.372    -363.368     146.099
  H       11.356    -367.287     149.442
  H       18.854    -363.804     145.311
  H       13.358    -373.935     145.224
  H       15.363    -369.315     149.223
  H       12.875    -368.289     146.454
  H       13.698    -367.830     149.397
  H       11.792    -373.041     143.746
  H       13.196    -365.482     149.068
  H       11.373    -371.362     143.865
  H       14.392    -365.369     146.538
  H       15.564    -364.690     148.631
  H       15.918    -366.399     148.986
  P       10.706    -365.382     147.949
  C       11.580    -363.238     149.118
  O       10.979    -364.512     149.266
  O       10.208    -366.792     148.531
  O        9.708    -364.823     146.988
  H        9.233    -366.842     148.480
  H       11.341    -362.628     149.998
  H       11.224    -362.726     148.226
  H       12.667    -363.354     149.056
  H       19.307    -363.552     149.728
  H       19.820    -364.406     148.291
  H       18.536    -365.056     149.283

 3  4  5  6  7  8  9  10  11  12  23  26  30  31 0
 6-311+G(2d,p)
 ****
 33  35  36  37  38 0
 6-311+G(2d,p)
 ****
 1  2  13  14  15  16  17  18  19  20  21  22  24  25 0
 3-21G
 ****
 27  28  29  32  34  39  40  41  42  43  44  45  46  47  48  49 0
 3-21G
 ****


