%nproc=1
%NoSave
%Mem=1900MB
#P OB98/GEN NMR

erre ene a

0 1
  C      159.614    -540.229    -239.416
  O      159.033    -540.351    -238.114
  P      157.662    -541.170    -237.900
  C      158.221    -541.962    -235.521
  O      157.317    -541.210    -236.329
  C      158.037    -541.743    -234.024
  O      158.536    -540.437    -233.626
  C      156.594    -541.835    -233.526
  O      156.665    -542.372    -232.206
  C      156.160    -540.381    -233.494
  O      155.024    -540.157    -232.680
  C      157.457    -539.703    -233.019
  N      157.495    -538.281    -233.359
  C      156.807    -537.413    -232.516
  O      156.149    -537.851    -231.568
  N      156.835    -536.057    -232.787
  C      157.417    -535.634    -233.873
  N      157.391    -534.298    -234.103
  C      158.092    -536.531    -234.834
  C      158.102    -537.829    -234.506
  O      157.627    -542.505    -238.576
  O      156.534    -540.200    -238.498
  H      154.337    -540.818    -232.908
  H      155.801    -540.742    -238.850
  H      158.537    -536.141    -235.739
  H      158.572    -538.572    -235.147
  H      157.567    -539.801    -231.925
  H      155.917    -540.044    -234.514
  H      155.952    -542.449    -234.165
  H      158.660    -542.480    -233.502
  H      156.895    -533.714    -233.432
  H      159.244    -541.693    -235.811
  H      157.717    -533.883    -234.960
  H      158.095    -543.029    -235.756
  P      155.920    -543.733    -231.797
  C      158.122    -545.037    -231.611
  O      156.963    -544.594    -230.928
  O      155.301    -544.474    -232.924
  O      154.818    -543.287    -230.720
  H      154.156    -543.997    -230.629
  H      158.844    -545.426    -230.891
  H      158.580    -544.223    -232.177
  H      157.846    -545.845    -232.303
  H      160.514    -539.654    -239.353
  H      158.923    -539.740    -240.070
  H      159.839    -541.202    -239.799

 3  4  5  6  7  8  9  10  11  12  13  23  27  28  29  30  32 0
 6-311+G(2d,p)
 ****
 34  35 0
 6-311+G(2d,p)
 ****
 1  2  14  15  16  17  18  19  20  21  22  24  25  26 0
 3-21G
 ****
 31  33  36  37  38  39  40  41  42  43  44  45  46 0
 3-21G
 ****


