%nproc=1
%NoSave
%Mem=1900MB
#P OB98/GEN NMR

erre ene a

0 1
  C     -896.360    -782.291    -640.003
  O     -895.810    -782.564    -638.713
  P     -894.340    -783.193    -638.614
  C     -893.090    -781.446    -637.161
  O     -893.250    -782.026    -638.459
  C     -893.470    -779.972    -637.197
  O     -894.860    -779.775    -637.541
  C     -893.320    -779.294    -635.834
  O     -892.000    -779.100    -635.335
  C     -894.180    -778.051    -635.986
  O     -893.470    -776.999    -636.654
  C     -895.350    -778.566    -636.903
  N     -896.570    -778.805    -636.164
  C     -897.230    -777.675    -635.690
  O     -896.760    -776.548    -635.797
  N     -898.380    -777.916    -635.021
  C     -898.950    -779.119    -634.758
  O     -900.000    -779.264    -634.126
  C     -898.200    -780.285    -635.260
  C     -897.070    -780.091    -635.951
  O     -894.010    -784.252    -639.616
  O     -894.350    -783.848    -637.132
  H     -894.110    -776.255    -636.780
  H     -893.890    -784.702    -637.191
  H     -898.870    -777.091    -634.650
  H     -898.630    -781.280    -635.086
  H     -896.500    -780.920    -636.339
  H     -895.550    -777.855    -637.693
  H     -894.530    -777.653    -635.025
  H     -893.830    -779.906    -635.076
  H     -892.860    -779.461    -637.949
  H     -892.060    -781.568    -636.835
  H     -893.710    -782.004    -636.449
  P     -891.260    -780.180    -634.409
  C     -889.040    -780.456    -635.718
  O     -890.260    -781.053    -635.328
  O     -892.100    -780.933    -633.414
  O     -890.240    -779.264    -633.605
  H     -890.100    -779.629    -632.699
  H     -888.510    -781.184    -636.354
  H     -888.410    -780.243    -634.855
  H     -889.200    -779.558    -636.305
  H     -897.340    -781.877    -639.892
  H     -896.418    -783.199    -640.566
  H     -895.734    -781.592    -640.517

 3  4  5  6  7  8  9  10  11  12  13  23  28  29  30  31  32 0
 6-311+G(2d,p)
 ****
 33  34 0
 6-311+G(2d,p)
 ****
 1  2  14  15  16  17  18  19  20  21  22  24  25  26  27 0
 3-21G
 ****
 35  36  37  38  39  40  41  42  43  44  45 0
 3-21G
 ****


