%nproc=1
%NoSave
%Mem=1900MB
#P OB98/GEN NMR

erre ene a

0 1
  C     -814.105     158.433     566.491
  O     -813.455     158.645     567.725
  P     -814.299     158.943     569.047
  C     -813.300     157.040     570.450
  O     -814.480     157.566     569.850
  C     -813.401     155.513     570.540
  O     -813.431     154.943     569.206
  C     -812.196     154.859     571.237
  O     -812.278     155.007     572.642
  C     -812.329     153.414     570.746
  O     -813.305     152.702     571.516
  C     -812.835     153.624     569.303
  N     -809.406     150.426     567.254
  C     -810.208     150.315     568.329
  N     -811.072     151.219     568.841
  C     -811.030     152.358     568.129
  C     -810.225     152.650     567.012
  C     -809.397     151.604     566.570
  N     -808.609     151.681     565.424
  N     -810.450     153.933     566.576
  C     -811.347     154.435     567.396
  N     -811.778     153.508     568.302
  O     -815.570     159.717     568.834
  O     -813.287     159.773     569.976
  H     -812.859     152.455     572.360
  H     -813.659     160.655     570.158
  H     -810.175     149.361     568.857
  H     -811.734     155.435     567.369
  H     -813.616     152.899     569.043
  H     -811.376     152.870     570.810
  H     -811.256     155.291     570.857
  H     -814.327     155.258     571.047
  H     -813.202     157.463     571.457
  H     -808.183     150.826     565.115
  H     -808.840     152.399     564.753
  H     -812.428     157.334     569.861
  P     -811.106     155.766     573.436
  C     -812.820     156.995     574.909
  O     -811.741     157.125     574.013
  O     -809.813     155.915     572.693
  O     -810.926     154.872     574.758
  H     -809.984     154.889     575.033
  H     -813.734     156.777     574.346
  H     -812.936     157.930     575.456
  H     -812.641     156.175     575.628
  H     -813.375     158.250     565.730
  H     -814.677     159.300     566.236
  H     -814.756     157.588     566.571

 3  4  5  6  7  8  9  10  11  12  22  25  29  30  31  32 0
 6-311+G(2d,p)
 ****
 33  36  37 0
 6-311+G(2d,p)
 ****
 1  2  13  14  15  16  17  18  19  20  21  23  24  26 0
 3-21G
 ****
 27  28  34  35  38  39  40  41  42  43  44  45  46  47  48 0
 3-21G
 ****


