%nproc=1
%NoSave
%Mem=1900MB
#P OB98/GEN NMR

erre ene a

0 1
  C      -56.357      37.781     108.568
  O      -57.300      37.389     109.574
  P      -56.837      36.783     110.987
  C      -56.657      39.025     112.246
  O      -55.957      37.885     111.756
  C      -56.337      39.296     113.720
  O      -54.916      39.449     113.915
  C      -56.976      40.561     114.284
  O      -58.340      40.338     114.589
  C      -56.082      40.835     115.489
  O      -56.471      40.013     116.600
  C      -54.704      40.413     114.965
  N      -52.422      44.802     116.264
  C      -53.107      43.890     116.988
  N      -53.692      42.747     116.569
  C      -53.489      42.570     115.253
  C      -52.813      43.413     114.382
  C      -52.263      44.580     114.937
  N      -51.578      45.514     114.193
  N      -52.835      42.911     113.098
  C      -53.496      41.773     113.195
  N      -53.911      41.524     114.474
  O      -56.193      35.439     110.897
  O      -58.180      36.710     111.857
  H      -56.418      39.084     116.310
  H      -58.109      35.991     112.513
  H      -53.200      44.110     118.048
  H      -53.696      41.101     112.372
  H      -54.117      39.906     115.739
  H      -56.128      41.878     115.821
  H      -56.877      41.384     113.564
  H      -56.652      38.420     114.297
  H      -57.733      38.845     112.133
  H      -51.242      46.343     114.659
  H      -51.496      45.381     113.196
  H      -56.378      39.893     111.638
  P      -59.483      40.880     113.606
  C      -60.797      38.676     113.594
  O      -60.067      39.611     112.820
  O      -59.100      42.037     112.749
  O      -60.682      41.261     114.596
  H      -61.203      41.990     114.207
  H      -60.101      38.024     114.128
  H      -61.411      38.069     112.924
  H      -61.448      39.183     114.312
  H      -56.882      38.155     107.714
  H      -55.768      36.935     108.282
  H      -55.718      38.546     108.957

 3  4  5  6  7  8  9  10  11  12  22  25  29  30  31  32 0
 6-311+G(2d,p)
 ****
 33  36  37 0
 6-311+G(2d,p)
 ****
 1  2  13  14  15  16  17  18  19  20  21  23  24  26 0
 3-21G
 ****
 27  28  34  35  38  39  40  41  42  43  44  45  46  47  48 0
 3-21G
 ****


