%nproc=1
%NoSave
%Mem=1900MB
#P OB98/GEN NMR

erre ene a

0 1
  C     -230.806    -619.049     -13.577
  O     -230.337    -617.848     -13.000
  H     -230.186    -619.875     -13.219
  H     -230.734    -619.007     -14.667
  H     -231.842    -619.236     -13.278
  P     -231.006    -616.465     -13.463
  C     -228.998    -616.145     -15.074
  O     -230.413    -616.210     -14.935
  C     -228.501    -614.732     -14.780
  O     -227.064    -614.656     -14.890
  C     -229.020    -613.658     -15.736
  O     -230.383    -613.313     -15.509
  C     -228.067    -612.525     -15.393
  O     -228.455    -611.930     -14.138
  C     -226.728    -613.284     -15.255
  N     -225.931    -613.262     -16.486
  C     -225.154    -612.115     -16.710
  O     -225.168    -611.181     -15.900
  N     -224.419    -612.029     -17.870
  C     -224.460    -612.996     -18.732
  N     -223.749    -612.847     -19.883
  C     -225.247    -614.231     -18.524
  C     -225.953    -614.297     -17.390
  O     -230.880    -615.318     -12.510
  O     -232.525    -616.850     -13.793
  H     -227.884    -611.156     -14.004
  H     -232.990    -616.020     -14.072
  H     -225.256    -615.004     -19.279
  H     -226.565    -615.167     -17.181
  H     -226.127    -612.870     -14.435
  H     -228.061    -611.726     -16.145
  H     -228.865    -613.949     -16.777
  H     -228.757    -614.499     -13.739
  H     -223.257    -611.965     -20.012
  H     -228.743    -616.449     -16.096
  H     -223.949    -613.408     -20.704
  H     -228.521    -616.835     -14.369
  P     -231.477    -613.861     -16.552
  C     -230.997    -611.970     -18.281
  O     -231.015    -613.361     -18.014
  O     -232.755    -612.961     -16.226
  O     -231.773    -615.330     -16.478
  H     -233.349    -613.405     -15.588
  H     -230.670    -611.804     -19.286
  H     -230.326    -611.485     -17.603
  H     -231.981    -611.570     -18.155

 6  7  8  9  10  11  12  13  14  15  16  26  30  31  32  33  35 0
 6-311+G(2d,p)
 ****
 37  38 0
 6-311+G(2d,p)
 ****
 1  2  3  4  5  17  18  19  20  21  22  23  24  25 0
 3-21G
 ****
 27  28  29  34  36  39  40  41  42  43  44  45  46 0
 3-21G
 ****


