%nproc=1
%NoSave
%Mem=1900MB
#P OB98/GEN NMR

erre ene a

0 1
  C      227.640      67.812     469.987
  O      227.251      67.832     468.627
  H      226.819      67.397     470.579
  H      227.851      68.827     470.337
  H      228.522      67.181     470.114
  P      228.308      68.444     467.588
  C      229.278      66.169     466.858
  O      228.490      67.291     466.482
  C      230.129      65.695     465.680
  O      231.141      64.785     466.180
  C      229.325      64.953     464.610
  O      229.831      65.297     463.319
  C      229.616      63.489     464.893
  O      229.465      62.668     463.740
  C      231.043      63.557     465.439
  N      231.153      58.461     465.660
  C      230.945      59.318     464.636
  N      230.950      60.668     464.663
  C      231.249      61.117     465.894
  C      231.480      60.368     467.033
  C      231.418      58.971     466.886
  N      231.603      58.093     467.927
  N      231.709      61.194     468.116
  C      231.631      62.420     467.637
  N      231.337      62.423     466.298
  O      229.575      68.963     468.183
  O      227.418      69.525     466.817
  H      228.518      62.674     463.481
  H      226.538      69.171     466.591
  H      230.741      58.861     463.670
  H      231.762      63.330     468.211
  H      231.796      63.566     464.642
  H      228.927      63.121     465.663
  H      228.259      65.172     464.659
  H      230.657      66.557     465.257
  H      228.632      65.353     467.195
  H      231.554      57.103     467.733
  H      231.821      58.451     468.847
  H      229.917      66.472     467.693
  P      229.198      66.561     462.565
  C      230.522      68.177     464.084
  O      230.187      67.814     462.747
  O      227.758      66.836     462.842
  O      229.416      66.187     461.020
  H      228.641      66.493     460.508
  H      231.182      69.019     464.070
  H      231.005      67.353     464.567
  H      229.631      68.431     464.619

 6  7  8  9  10  11  12  13  14  15  25  28  32  33  34  35 0
 6-311+G(2d,p)
 ****
 36  39  40 0
 6-311+G(2d,p)
 ****
 1  2  3  4  5  16  17  18  19  20  21  22  23  24 0
 3-21G
 ****
 26  27  29  30  31  37  38  41  42  43  44  45  46  47 0
 3-21G
 ****
 48 0
 3-21G
 ****


