%nproc=1
%NoSave
%Mem=1900MB
#P OB98/GEN NMR

erre ene a

0 1
  C     -252.141    -747.006     -29.818
  O     -252.743    -747.980     -30.653
  H     -251.344    -746.512     -30.378
  H     -251.708    -747.478     -28.930
  H     -252.884    -746.262     -29.519
  P     -253.920    -748.854     -29.998
  C     -252.212    -750.770     -29.765
  O     -253.480    -750.377     -30.270
  C     -251.685    -751.992     -30.521
  O     -252.540    -753.124     -30.215
  C     -251.680    -751.813     -32.039
  O     -250.520    -752.441     -32.579
  C     -252.924    -752.559     -32.492
  O     -252.825    -753.012     -33.842
  C     -253.010    -753.678     -31.454
  N     -256.518    -756.782     -33.482
  C     -255.212    -756.599     -33.757
  N     -254.338    -755.756     -33.153
  C     -254.938    -755.101     -32.139
  C     -256.263    -755.183     -31.746
  C     -257.074    -756.066     -32.472
  N     -258.416    -756.245     -32.219
  N     -256.505    -754.317     -30.695
  C     -255.347    -753.732     -30.454
  N     -254.372    -754.164     -31.311
  O     -255.304    -748.504     -30.432
  O     -253.625    -748.683     -28.434
  H     -253.707    -753.307     -34.132
  H     -252.670    -748.772     -28.238
  H     -254.805    -757.195     -34.568
  H     -255.164    -752.992     -29.682
  H     -252.381    -754.542     -31.713
  H     -253.799    -751.893     -32.420
  H     -251.705    -750.764     -32.333
  H     -250.688    -752.240     -30.143
  H     -252.286    -751.007     -28.693
  H     -258.922    -756.911     -32.777
  H     -258.845    -755.735     -31.454
  H     -251.524    -749.928     -29.885
  P     -249.134    -751.632     -32.568
  C     -249.053    -751.562     -35.149
  O     -248.367    -751.918     -33.949
  O     -248.312    -751.772     -31.333
  O     -249.622    -750.118     -32.758
  H     -249.058    -749.535     -32.219
  H     -248.441    -751.801     -35.994
  H     -249.260    -750.512     -35.144
  H     -249.972    -752.106     -35.209

 6  7  8  9  10  11  12  13  14  15  25  28  32  33  34  35 0
 6-311+G(2d,p)
 ****
 36  39  40 0
 6-311+G(2d,p)
 ****
 1  2  3  4  5  16  17  18  19  20  21  22  23  24 0
 3-21G
 ****
 26  27  29  30  31  37  38  41  42  43  44  45  46  47 0
 3-21G
 ****
 48 0
 3-21G
 ****


