%nproc=1
%NoSave
%Mem=1900MB
#P OB98/GEN NMR

erre ene a

0 1
  C     -512.213     142.345     223.458
  O     -512.276     140.923     223.437
  H     -511.972     142.699     222.453
  H     -511.439     142.692     224.150
  H     -513.184     142.754     223.751
  P     -512.359     140.153     224.846
  C     -511.753     137.960     223.615
  O     -511.424     138.857     224.676
  C     -510.554     137.071     223.257
  O     -509.646     137.784     222.394
  C     -509.715     136.656     224.455
  O     -510.363     135.757     225.332
  C     -508.389     136.268     223.820
  O     -508.362     134.917     223.364
  C     -508.330     137.231     222.603
  N     -507.326     138.272     222.783
  C     -506.003     137.868     222.625
  O     -505.667     136.708     222.379
  N     -505.048     138.840     222.808
  C     -505.301     140.136     223.177
  O     -504.399     140.956     223.364
  C     -506.714     140.499     223.352
  C     -507.650     139.564     223.152
  O     -513.743     139.847     225.336
  O     -511.517     141.082     225.838
  H     -507.477     134.775     222.964
  H     -511.712     140.863     226.782
  H     -504.092     138.569     222.684
  H     -506.947     141.515     223.651
  H     -508.706     139.801     223.276
  H     -508.078     136.679     221.694
  H     -507.562     136.393     224.512
  H     -509.512     137.553     225.059
  H     -510.923     136.193     222.715
  H     -512.018     138.566     222.746
  H     -512.611     137.347     223.900
  P     -509.817     135.382     226.780
  C     -511.608     133.530     227.151
  O     -510.217     133.858     227.111
  O     -510.004     136.416     227.860
  O     -508.230     135.265     226.507
  H     -507.762     135.583     227.311
  H     -511.723     132.491     227.380
  H     -512.051     133.736     226.199
  H     -512.091     134.117     227.904

 6  7  8  9  10  11  12  13  14  15  16  26  31  32  33  34  35 0
 6-311+G(2d,p)
 ****
 36  37 0
 6-311+G(2d,p)
 ****
 1  2  3  4  5  17  18  19  20  21  22  23  24  25 0
 3-21G
 ****
 27  28  29  30  38  39  40  41  42  43  44  45 0
 3-21G
 ****


