%nproc=1
%NoSave
%Mem=1900MB
#P OB98/GEN NMR

erre ene a

0 1
  C     -412.430    -267.276     225.475
  O     -413.125    -266.394     224.598
  P     -412.482    -266.073     223.167
  C     -413.810    -267.677     221.533
  O     -412.618    -267.344     222.210
  C     -413.746    -267.134     220.095
  O     -412.740    -267.845     219.338
  C     -415.063    -267.272     219.339
  O     -415.927    -266.177     219.566
  C     -414.587    -267.378     217.903
  O     -414.237    -266.074     217.396
  C     -413.319    -268.253     218.064
  N     -413.483    -269.721     218.069
  C     -413.579    -270.411     216.862
  O     -413.543    -269.879     215.757
  N     -413.712    -271.772     216.954
  C     -413.585    -272.521     218.092
  O     -413.654    -273.740     218.109
  C     -413.336    -271.757     219.319
  C     -413.307    -270.419     219.257
  O     -410.915    -265.987     223.467
  O     -412.998    -264.819     222.525
  H     -415.016    -265.499     217.527
  H     -410.584    -265.084     223.304
  H     -413.854    -272.281     216.095
  H     -413.186    -272.308     220.234
  H     -413.124    -269.847     220.161
  H     -412.587    -268.019     217.281
  H     -415.372    -267.755     217.248
  H     -415.550    -268.220     219.600
  H     -413.451    -266.072     220.137
  H     -414.681    -267.261     222.047
  H     -413.938    -268.764     221.526
  P     -417.433    -266.441     220.054
  C     -417.236    -265.538     222.447
  O     -417.340    -266.690     221.637
  O     -418.205    -267.457     219.280
  O     -418.110    -264.986     219.975
  H     -418.597    -264.875     219.125
  H     -417.340    -265.829     223.497
  H     -418.030    -264.820     222.199
  H     -416.258    -265.071     222.307
  H     -412.985    -267.387     226.383
  H     -411.464    -266.872     225.695
  H     -412.319    -268.231     225.006

 3  4  5  6  7  8  9  10  11  12  13  23  28  29  30  31  32 0
 6-311+G(2d,p)
 ****
 33  34 0
 6-311+G(2d,p)
 ****
 1  2  14  15  16  17  18  19  20  21  22  24  25  26  27 0
 3-21G
 ****
 35  36  37  38  39  40  41  42  43  44  45 0
 3-21G
 ****


