%nproc=1
%NoSave
%Mem=1900MB
#P OB98/GEN NMR

erre ene a

0 1
  C       38.842    -564.020     -46.196
  O       38.731    -562.619     -46.049
  H       39.840    -564.329     -45.872
  H       38.715    -564.293     -47.247
  H       38.097    -564.529     -45.581
  P       37.307    -561.963     -46.386
  C       36.810    -561.308     -43.925
  O       36.423    -562.086     -45.047
  C       35.651    -561.160     -42.940
  O       35.268    -562.485     -42.467
  C       35.972    -560.307     -41.706
  O       34.780    -559.591     -41.339
  C       36.240    -561.342     -40.630
  O       36.083    -560.828     -39.310
  C       35.223    -562.414     -41.023
  N       35.347    -564.869     -36.631
  C       34.956    -563.582     -36.924
  N       34.529    -562.822     -35.889
  N       34.981    -563.074     -38.132
  C       35.397    -563.953     -39.077
  C       35.815    -565.252     -38.915
  C       35.812    -565.791     -37.567
  O       36.164    -566.923     -37.244
  N       36.195    -565.802     -40.121
  C       35.992    -564.842     -41.001
  N       35.514    -563.700     -40.415
  O       36.653    -563.042     -47.376
  O       37.356    -560.601     -46.995
  H       36.896    -560.333     -39.085
  H       36.832    -562.801     -48.302
  H       35.326    -565.205     -35.685
  H       36.183    -564.916     -42.064
  H       34.205    -562.141     -40.727
  H       37.272    -561.732     -40.730
  H       34.442    -563.157     -34.941
  H       36.793    -559.599     -41.843
  H       34.193    -561.884     -36.090
  H       34.784    -560.755     -43.483
  H       37.113    -560.310     -44.269
  H       37.661    -561.787     -43.429
  P       34.497    -558.181     -42.052
  C       32.610    -559.016     -43.639
  O       33.919    -558.474     -43.517
  O       35.974    -557.634     -42.361
  O       33.718    -557.215     -41.222
  H       35.968    -556.661     -42.375
  H       32.375    -559.152     -44.674
  H       31.903    -558.344     -43.198
  H       32.566    -559.960     -43.137

 6  7  8  9  10  11  12  13  14  15  26  29  33  34 0
 6-311+G(2d,p)
 ****
 36  38  39  40  41 0
 6-311+G(2d,p)
 ****
 1  2  3  4  5  16  17  18  19  20  21  22  23  24  25 0
 3-21G
 ****
 27  28  30  31  32  35  37  42  43  44  45  46  47 0
 3-21G
 ****
 48  49 0
 3-21G
 ****


