%nproc=1
%NoSave
%Mem=1900MB
#P OB98/GEN NMR

erre ene a

0 1
  C      137.479     135.412    -163.231
  O      137.011     136.363    -164.195
  P      135.442     136.306    -164.536
  C      134.662     138.781    -164.280
  O      135.022     137.727    -165.168
  C      134.761     140.132    -164.976
  O      136.107     140.448    -165.389
  C      133.898     140.218    -166.245
  O      132.543     140.473    -165.901
  C      134.548     141.406    -166.972
  O      134.058     142.664    -166.482
  C      136.045     141.239    -166.608
  N      137.981     141.809    -171.255
  C      137.064     142.585    -170.574
  N      136.621     143.688    -171.220
  N      136.633     142.317    -169.372
  C      137.152     141.188    -168.851
  C      138.105     140.352    -169.414
  C      138.583     140.676    -170.743
  O      139.418     140.028    -171.377
  N      138.441     139.334    -168.552
  C      137.627     139.487    -167.541
  N      136.860     140.628    -167.630
  O      134.745     136.298    -163.100
  O      135.062     135.106    -165.346
  H      134.333     143.373    -167.093
  H      134.346     135.426    -162.929
  H      138.286     142.073    -172.186
  H      137.548     138.818    -166.686
  H      136.504     142.217    -166.378
  H      134.351     141.372    -168.038
  H      136.912     143.976    -172.136
  H      134.004     139.324    -166.831
  H      135.939     144.277    -170.739
  H      134.436     140.901    -164.262
  H      135.316     138.766    -163.405
  H      133.647     138.592    -163.927
  P      131.413     139.581    -166.602
  C      130.627     138.331    -164.459
  O      130.307     139.248    -165.494
  O      132.154     138.179    -166.831
  O      130.889     140.136    -167.882
  H      131.961     137.830    -167.744
  H      130.062     138.579    -163.547
  H      131.704     138.346    -164.206
  H      130.352     137.309    -164.770
  H      138.531     135.542    -163.084
  H      137.288     134.421    -163.586
  H      136.968     135.563    -162.303

 3  4  5  6  7  8  9  10  11  12  23  26  30  31 0
 6-311+G(2d,p)
 ****
 33  35  36  37  38 0
 6-311+G(2d,p)
 ****
 1  2  13  14  15  16  17  18  19  20  21  22  24  25 0
 3-21G
 ****
 27  28  29  32  34  39  40  41  42  43  44  45  46  47  48  49 0
 3-21G
 ****


