%nproc=1
%NoSave
%Mem=1900MB
#P OB98/GEN NMR

erre ene a

0 1
  C     -176.764     -96.414    1187.230
  O     -178.030     -95.820    1187.355
  P     -178.755     -95.326    1186.002
  C     -179.651     -97.651    1185.227
  O     -178.752     -96.571    1184.987
  C     -180.673     -97.739    1184.098
  O     -180.020     -97.858    1182.816
  C     -181.625     -98.926    1184.189
  O     -182.608     -98.710    1185.189
  C     -182.150     -98.964    1182.768
  O     -183.172     -97.963    1182.591
  C     -180.911     -98.609    1181.952
  N     -181.021    -102.372    1178.484
  C     -181.887    -101.392    1178.747
  N     -181.806    -100.443    1179.707
  C     -180.666    -100.560    1180.410
  C     -179.689    -101.546    1180.259
  C     -179.901    -102.476    1179.240
  N     -179.005    -103.499    1178.945
  N     -178.684    -101.368    1181.173
  C     -179.020    -100.315    1181.857
  N     -180.214     -99.778    1181.442
  O     -177.674     -94.329    1185.364
  O     -180.081     -94.667    1186.198
  H     -183.980     -98.298    1183.013
  H     -178.110     -93.591    1184.893
  H     -182.789    -101.345    1178.119
  H     -178.468     -99.881    1182.681
  H     -181.132     -97.955    1181.100
  H     -182.596     -99.939    1182.500
  H     -181.068     -99.851    1184.421
  H     -181.252     -96.785    1184.108
  H     -180.170     -97.487    1186.169
  H     -179.301    -104.201    1178.300
  H     -178.242    -103.653    1179.597
  H     -179.071     -98.592    1185.307
  P     -182.848     -99.908    1186.260
  C     -181.480     -98.555    1187.953
  O     -181.615     -99.779    1187.264
  O     -182.465    -101.199    1185.386
  O     -184.208     -99.927    1186.882
  H     -181.611    -101.072    1184.914
  H     -180.646     -98.621    1188.648
  H     -182.395     -98.337    1188.513
  H     -181.296     -97.732    1187.242
  H     -176.403     -96.692    1188.198
  H     -176.086     -95.718    1186.783
  H     -176.838     -97.285    1186.614

 3  4  5  6  7  8  9  10  11  12  22  25  29  30  31  32 0
 6-311+G(2d,p)
 ****
 33  36  37 0
 6-311+G(2d,p)
 ****
 1  2  13  14  15  16  17  18  19  20  21  23  24  26 0
 3-21G
 ****
 27  28  34  35  38  39  40  41  42  43  44  45  46  47  48 0
 3-21G
 ****


