%nproc=1
%NoSave
%Mem=1900MB
#P OB98/GEN NMR

erre ene a

0 1
  C      578.604    -307.971    -181.171
  O      577.242    -307.744    -180.860
  H      579.225    -307.812    -180.281
  H      578.721    -309.005    -181.504
  H      578.925    -307.300    -181.970
  P      576.848    -306.272    -180.355
  C      574.449    -306.450    -181.339
  O      575.250    -306.286    -180.180
  C      573.104    -307.057    -180.950
  O      573.271    -308.466    -180.645
  C      572.470    -306.438    -179.709
  O      571.794    -305.228    -180.009
  C      571.491    -307.539    -179.322
  O      570.341    -307.499    -180.186
  C      572.320    -308.798    -179.594
  N      572.297    -312.148    -175.717
  C      571.414    -311.902    -176.703
  N      571.484    -310.996    -177.696
  C      572.629    -310.287    -177.597
  C      573.625    -310.419    -176.652
  C      573.432    -311.409    -175.665
  N      574.332    -311.651    -174.652
  N      574.628    -309.492    -176.859
  C      574.258    -308.841    -177.943
  N      573.050    -309.276    -178.426
  O      577.064    -305.358    -181.659
  O      577.606    -305.765    -179.172
  H      569.754    -306.804    -179.828
  H      577.166    -304.425    -181.395
  H      570.513    -312.525    -176.698
  H      574.821    -308.039    -178.413
  H      571.708    -309.636    -179.955
  H      571.129    -307.437    -178.288
  H      573.198    -306.302    -178.909
  H      572.434    -306.984    -181.814
  H      574.963    -307.116    -182.040
  H      574.013    -312.247    -173.900
  H      575.093    -311.012    -174.521
  H      574.299    -305.473    -181.816
  P      571.625    -304.167    -178.817
  C      572.131    -302.169    -180.414
  O      571.199    -302.787    -179.514
  O      573.129    -303.905    -178.344
  O      570.748    -304.623    -177.690
  H      573.160    -303.631    -177.407
  H      571.710    -301.263    -180.797
  H      572.340    -302.836    -181.224
  H      573.038    -301.947    -179.891

 6  7  8  9  10  11  12  13  14  15  25  28  32  33  34  35 0
 6-311+G(2d,p)
 ****
 36  39  40 0
 6-311+G(2d,p)
 ****
 1  2  3  4  5  16  17  18  19  20  21  22  23  24 0
 3-21G
 ****
 26  27  29  30  31  37  38  41  42  43  44  45  46  47 0
 3-21G
 ****
 48 0
 3-21G
 ****


