%nproc=1
%NoSave
%Mem=1900MB
#P OB98/GEN NMR

erre ene a

0 1
  C      259.595    -339.476    -624.134
  O      258.238    -339.160    -624.402
  P      257.254    -338.995    -623.141
  C      255.473    -337.519    -624.319
  O      255.775    -338.772    -623.729
  C      253.979    -337.410    -624.642
  O      253.687    -338.257    -625.792
  C      253.045    -337.851    -623.502
  O      251.888    -337.020    -623.569
  C      252.720    -339.283    -623.891
  O      251.579    -339.817    -623.233
  C      252.599    -339.126    -625.405
  N      250.119    -342.381    -628.484
  C      249.790    -341.157    -628.012
  N      250.502    -340.346    -627.200
  C      251.679    -340.912    -626.892
  C      252.148    -342.156    -627.274
  C      251.311    -342.910    -628.112
  N      251.646    -344.166    -628.583
  N      253.394    -342.406    -626.732
  C      253.670    -341.328    -626.025
  N      252.681    -340.390    -626.104
  O      257.642    -337.556    -622.562
  O      257.370    -340.068    -622.102
  H      251.792    -339.998    -622.297
  H      257.626    -337.550    -621.588
  H      248.816    -340.775    -628.321
  H      254.567    -341.188    -625.432
  H      251.660    -338.645    -625.697
  H      253.561    -339.926    -623.634
  H      253.500    -337.754    -622.510
  H      253.761    -336.375    -624.938
  H      256.029    -337.413    -625.254
  H      250.905    -344.701    -629.007
  H      252.433    -344.624    -628.143
  H      255.783    -336.709    -623.647
  P      251.223    -336.497    -622.200
  C      250.023    -334.529    -623.345
  O      249.867    -335.769    -622.676
  O      252.158    -335.238    -621.864
  O      251.112    -337.500    -621.106
  H      252.254    -334.643    -622.630
  H      249.036    -334.204    -623.701
  H      250.689    -334.644    -624.206
  H      250.419    -333.780    -622.655
  H      260.132    -339.556    -625.056
  H      259.647    -340.407    -623.609
  H      260.029    -338.704    -623.534

 3  4  5  6  7  8  9  10  11  12  22  25  29  30  31  32 0
 6-311+G(2d,p)
 ****
 33  36  37 0
 6-311+G(2d,p)
 ****
 1  2  13  14  15  16  17  18  19  20  21  23  24  26 0
 3-21G
 ****
 27  28  34  35  38  39  40  41  42  43  44  45  46  47  48 0
 3-21G
 ****


