%nproc=1
%NoSave
%Mem=1900MB
#P OB98/GEN NMR

erre ene a

0 1
  C      403.303     -35.068     458.655
  O      404.559     -35.653     458.368
  P      405.482     -35.070     457.190
  C      407.775     -35.360     458.341
  O      406.766     -34.441     457.924
  C      408.429     -34.898     459.642
  O      407.439     -34.756     460.687
  C      409.471     -35.862     460.193
  O      410.682     -35.743     459.467
  C      409.556     -35.405     461.648
  O      410.426     -34.267     461.786
  C      408.091     -35.021     461.952
  N      407.395     -36.051     462.716
  C      407.817     -36.209     464.034
  O      408.741     -35.532     464.489
  N      407.213     -37.172     464.817
  C      406.280     -37.923     464.292
  N      405.728     -38.871     465.109
  C      405.832     -37.805     462.895
  C      406.421     -36.859     462.168
  O      404.786     -34.163     456.227
  O      406.071     -36.396     456.515
  H      409.997     -33.535     461.299
  H      405.387     -36.855     455.961
  H      405.068     -38.454     462.506
  H      406.159     -36.705     461.129
  H      408.054     -34.085     462.516
  H      409.953     -36.194     462.300
  H      409.094     -36.886     460.152
  H      408.876     -33.904     459.459
  H      406.080     -38.938     466.052
  H      408.533     -35.423     457.554
  H      405.025     -39.522     464.799
  H      407.319     -36.360     458.466
  P      411.205     -36.976     458.585
  C      411.682     -36.159     456.200
  O      410.730     -36.738     457.076
  O      410.911     -38.334     459.141
  O      412.791     -36.732     458.502
  H      413.250     -37.581     458.656
  H      411.371     -36.352     455.170
  H      412.676     -36.586     456.359
  H      411.713     -35.072     456.363
  H      402.842     -35.592     459.466
  H      402.676     -35.127     457.790
  H      403.441     -34.042     458.926

 3  4  5  6  7  8  9  10  11  12  13  23  27  28  29  30  32 0
 6-311+G(2d,p)
 ****
 34  35 0
 6-311+G(2d,p)
 ****
 1  2  14  15  16  17  18  19  20  21  22  24  25  26 0
 3-21G
 ****
 31  33  36  37  38  39  40  41  42  43  44  45  46 0
 3-21G
 ****


