%nproc=1
%NoSave
%Mem=1900MB
#P OB98/GEN NMR

erre ene a

0 1
  C     -708.721     -23.097    -373.952
  O     -708.995     -23.148    -372.544
  P     -708.328     -22.141    -371.487
  C     -710.434     -21.307    -370.257
  O     -709.365     -20.974    -371.143
  C     -711.804     -21.064    -370.908
  O     -711.979     -21.919    -372.055
  C     -712.999     -21.353    -370.005
  O     -713.183     -20.314    -369.056
  C     -714.121     -21.485    -371.032
  O     -714.617     -20.196    -371.425
  C     -713.389     -22.165    -372.213
  N     -713.673     -23.594    -372.283
  C     -714.439     -24.026    -373.370
  O     -714.892     -23.209    -374.179
  N     -714.691     -25.370    -373.509
  C     -714.282     -26.197    -372.593
  N     -714.561     -27.519    -372.783
  C     -713.552     -25.772    -371.389
  C     -713.280     -24.471    -371.298
  O     -706.976     -21.653    -371.889
  O     -708.235     -22.978    -370.123
  H     -713.843     -19.667    -371.683
  H     -707.461     -22.666    -369.616
  H     -713.255     -26.490    -370.639
  H     -712.738     -24.074    -370.452
  H     -713.676     -21.702    -373.161
  H     -714.965     -22.059    -370.657
  H     -712.857     -22.313    -369.496
  H     -711.829     -20.023    -371.256
  H     -715.055     -27.774    -373.631
  H     -710.347     -20.678    -369.359
  H     -714.281     -28.244    -372.138
  H     -710.333     -22.359    -369.964
  P     -712.194     -20.194    -367.809
  C     -712.054     -17.638    -367.598
  O     -711.369     -18.827    -367.966
  O     -711.357     -21.400    -367.523
  O     -713.174     -19.874    -366.576
  H     -712.793     -20.262    -365.762
  H     -711.315     -16.865    -367.367
  H     -712.688     -17.803    -366.718
  H     -712.671     -17.301    -368.436
  H     -709.278     -23.862    -374.452
  H     -707.675     -23.251    -374.118
  H     -709.006     -22.140    -374.336

 3  4  5  6  7  8  9  10  11  12  13  23  27  28  29  30  32 0
 6-311+G(2d,p)
 ****
 34  35 0
 6-311+G(2d,p)
 ****
 1  2  14  15  16  17  18  19  20  21  22  24  25  26 0
 3-21G
 ****
 31  33  36  37  38  39  40  41  42  43  44  45  46 0
 3-21G
 ****


