%nproc=1
%NoSave
%Mem=1900MB
#P OB98/GEN NMR

erre ene a

0 1
  C     -814.123     315.092     495.964
  O     -814.072     316.127     494.985
  P     -813.173     317.423     495.295
  C     -810.782     316.474     495.677
  O     -811.675     317.147     494.805
  C     -809.499     316.072     494.941
  O     -809.776     315.073     493.931
  C     -808.830     317.223     494.207
  O     -808.027     318.000     495.074
  C     -807.948     316.455     493.212
  O     -806.756     315.992     493.874
  C     -808.843     315.270     492.837
  N     -809.002     314.374     487.788
  C     -808.081     314.073     488.732
  N     -808.102     314.351     490.055
  C     -809.229     315.019     490.373
  C     -810.247     315.396     489.523
  C     -810.108     315.049     488.168
  N     -811.055     315.370     487.220
  N     -811.225     316.081     490.210
  C     -810.822     316.086     491.470
  N     -809.604     315.463     491.613
  O     -813.039     317.392     496.895
  O     -813.778     318.704     494.828
  H     -806.308     316.783     494.236
  H     -813.026     318.308     497.248
  H     -807.217     313.525     488.372
  H     -811.348     316.533     492.295
  H     -808.270     314.339     492.712
  H     -807.630     317.074     492.376
  H     -809.563     317.818     493.647
  H     -808.806     315.646     495.675
  H     -811.265     315.582     496.110
  H     -810.893     315.065     486.269
  H     -811.898     315.856     487.497
  H     -810.548     317.141     496.526
  P     -808.174     319.591     494.974
  C     -807.471     320.196     497.414
  O     -807.123     320.183     496.038
  O     -809.595     319.860     495.657
  O     -808.088     320.143     493.594
  H     -810.014     320.656     495.244
  H     -806.562     320.339     498.002
  H     -807.929     319.242     497.705
  H     -808.166     321.023     497.628
  H     -814.757     314.303     495.616
  H     -814.513     315.486     496.879
  H     -813.137     314.710     496.131

 3  4  5  6  7  8  9  10  11  12  22  25  29  30  31  32 0
 6-311+G(2d,p)
 ****
 33  36  37 0
 6-311+G(2d,p)
 ****
 1  2  13  14  15  16  17  18  19  20  21  23  24  26 0
 3-21G
 ****
 27  28  34  35  38  39  40  41  42  43  44  45  46  47  48 0
 3-21G
 ****


