%nproc=1
%NoSave
%Mem=1900MB
#P OB98/GEN NMR

erre ene a

0 1
  C     -600.894    -478.296      35.359
  O     -600.201    -477.059      35.263
  P     -599.255    -476.626      36.478
  C     -597.085    -476.905      35.070
  O     -597.811    -477.279      36.239
  C     -595.908    -475.985      35.434
  O     -595.050    -476.658      36.395
  C     -595.035    -475.594      34.228
  O     -594.535    -474.268      34.423
  C     -593.864    -476.546      34.324
  O     -592.713    -476.031      33.661
  C     -593.702    -476.668      35.848
  N     -589.141    -478.650      36.755
  C     -589.513    -477.328      36.636
  N     -588.520    -476.415      36.675
  N     -590.749    -476.935      36.481
  C     -591.644    -477.950      36.460
  C     -591.403    -479.304      36.583
  C     -590.022    -479.737      36.727
  O     -589.622    -480.897      36.814
  N     -592.555    -480.035      36.534
  C     -593.504    -479.140      36.342
  N     -593.005    -477.864      36.247
  O     -599.845    -477.456      37.715
  O     -599.247    -475.155      36.768
  H     -592.024    -476.716      33.691
  H     -600.352    -476.858      38.309
  H     -588.178    -478.897      36.850
  H     -594.564    -479.345      36.241
  H     -593.181    -475.799      36.264
  H     -594.118    -477.514      33.874
  H     -587.532    -476.653      36.716
  H     -595.551    -475.669      33.260
  H     -588.758    -475.434      36.548
  H     -596.311    -475.104      35.930
  H     -597.755    -476.376      34.393
  H     -596.716    -477.805      34.554
  P     -594.310    -473.409      33.087
  C     -596.069    -471.652      33.879
  O     -595.646    -472.554      32.868
  O     -594.372    -474.513      31.929
  O     -593.033    -472.633      33.074
  H     -593.863    -474.208      31.141
  H     -596.052    -470.645      33.474
  H     -595.420    -471.700      34.757
  H     -597.096    -471.902      34.179
  H     -601.481    -478.445      34.477
  H     -601.535    -478.280      36.216
  H     -600.188    -479.094      35.457

 3  4  5  6  7  8  9  10  11  12  23  26  30  31 0
 6-311+G(2d,p)
 ****
 33  35  36  37  38 0
 6-311+G(2d,p)
 ****
 1  2  13  14  15  16  17  18  19  20  21  22  24  25 0
 3-21G
 ****
 27  28  29  32  34  39  40  41  42  43  44  45  46  47  48  49 0
 3-21G
 ****


