%nproc=1
%NoSave
%Mem=1900MB
#P OB98/GEN NMR

erre ene a

0 1
  C      607.962     406.224     391.125
  O      608.973     405.820     392.027
  H      607.007     406.227     391.654
  H      607.897     405.521     390.291
  H      608.161     407.229     390.751
  P      610.487     405.729     391.493
  C      611.100     403.851     393.176
  O      611.319     405.192     392.765
  C      611.550     403.664     394.620
  O      612.988     403.734     394.735
  C      611.038     404.714     395.600
  O      609.662     404.577     395.920
  C      611.940     404.426     396.790
  O      611.496     403.241     397.465
  C      613.296     404.202     396.081
  N      614.120     405.411     396.024
  C      615.164     405.498     396.955
  O      615.361     404.596     397.764
  N      615.950     406.634     396.965
  C      615.695     407.592     396.129
  N      616.499     408.691     396.190
  C      614.589     407.555     395.150
  C      613.857     406.439     395.147
  O      611.026     406.963     390.843
  O      610.499     404.444     390.540
  H      612.094     403.104     398.224
  H      611.409     404.348     390.171
  H      614.408     408.398     394.506
  H      613.016     406.343     394.468
  H      613.871     403.406     396.580
  H      611.947     405.230     397.526
  H      611.255     405.736     395.233
  H      611.252     402.648     394.932
  H      617.251     408.699     396.873
  H      611.654     403.194     392.501
  H      616.334     409.525     395.635
  H      610.038     403.608     393.111
  P      608.691     405.792     395.496
  C      608.474     406.436     398.028
  O      607.820     406.140     396.799
  O      607.655     405.094     394.503
  O      609.384     406.966     394.883
  H      607.908     405.259     393.571
  H      607.742     406.642     398.781
  H      609.104     407.291     397.900
  H      609.067     405.597     398.327

 6  7  8  9  10  11  12  13  14  15  16  26  30  31  32  33  35 0
 6-311+G(2d,p)
 ****
 37  38 0
 6-311+G(2d,p)
 ****
 1  2  3  4  5  17  18  19  20  21  22  23  24  25 0
 3-21G
 ****
 27  28  29  34  36  39  40  41  42  43  44  45  46 0
 3-21G
 ****


