%nproc=1
%NoSave
%Mem=1900MB
#P OB98/GEN NMR

erre ene a

0 1
  C      992.484     507.462    -143.202
  O      992.225     508.200    -142.033
  P      990.777     508.226    -141.363
  C      988.866     509.942    -141.117
  O      990.132     509.663    -141.708
  C      988.157     511.083    -141.903
  O      988.938     512.307    -141.735
  C      988.057     510.785    -143.422
  O      986.721     510.923    -143.926
  C      989.075     511.719    -144.016
  O      988.876     512.014    -145.383
  C      989.033     512.906    -143.042
  N      990.189     513.796    -143.165
  C      990.289     514.552    -144.344
  O      989.453     514.546    -145.246
  N      991.420     515.318    -144.460
  C      992.488     515.317    -143.602
  O      993.498     515.953    -143.817
  C      992.353     514.462    -142.417
  C      991.202     513.767    -142.234
  O      990.722     507.871    -139.915
  O      989.927     507.242    -142.317
  H      989.545     512.675    -145.658
  H      989.886     507.512    -143.245
  H      991.507     515.885    -145.297
  H      993.182     514.421    -141.725
  H      991.086     513.112    -141.363
  H      988.122     513.508    -143.179
  H      990.073     511.237    -143.946
  H      988.324     509.744    -143.635
  H      987.165     511.220    -141.447
  H      988.999     510.248    -140.082
  H      988.246     509.037    -141.112
  P      986.075     509.958    -145.035
  C      986.179     509.759    -147.659
  O      986.432     510.527    -146.497
  O      984.634     509.633    -144.844
  O      986.961     508.630    -144.963
  H      986.449     507.845    -145.223
  H      986.897     510.047    -148.449
  H      985.155     509.989    -147.993
  H      986.252     508.692    -147.435
  H      993.510     507.582    -143.479
  H      991.857     507.816    -143.994
  H      992.281     506.427    -143.022

 3  4  5  6  7  8  9  10  11  12  13  23  28  29  30  31  32 0
 6-311+G(2d,p)
 ****
 33  34 0
 6-311+G(2d,p)
 ****
 1  2  14  15  16  17  18  19  20  21  22  24  25  26  27 0
 3-21G
 ****
 35  36  37  38  39  40  41  42  43  44  45 0
 3-21G
 ****


