%nproc=1
%NoSave
%Mem=1900MB
#P OB98/GEN NMR

erre ene a

0 1
  C     -299.576    -335.917    -138.562
  O     -300.630    -336.660    -139.129
  P     -301.556    -336.045    -140.287
  C     -299.553    -336.077    -141.911
  O     -300.570    -335.282    -141.307
  C     -299.088    -335.436    -143.226
  O     -297.850    -336.079    -143.654
  C     -300.126    -335.593    -144.366
  O     -300.481    -334.370    -145.018
  C     -299.480    -336.647    -145.253
  O     -299.966    -336.649    -146.583
  C     -297.993    -336.351    -145.064
  N     -297.135    -337.443    -145.508
  C     -296.999    -337.628    -146.884
  O     -297.527    -336.921    -147.730
  N     -296.251    -338.704    -147.269
  C     -295.743    -339.671    -146.450
  O     -295.171    -340.665    -146.875
  C     -295.958    -339.444    -145.009
  C     -296.607    -338.355    -144.606
  O     -302.705    -335.221    -139.818
  O     -301.981    -337.330    -141.138
  H     -299.589    -337.431    -147.037
  H     -301.237    -337.831    -141.519
  H     -296.142    -338.852    -148.264
  H     -295.572    -340.197    -144.334
  H     -296.784    -338.164    -143.550
  H     -297.690    -335.440    -145.597
  H     -299.712    -337.629    -144.826
  H     -301.079    -335.976    -143.982
  H     -298.879    -334.381    -143.031
  H     -299.951    -337.071    -142.118
  H     -298.714    -336.194    -141.218
  P     -301.650    -334.212    -146.093
  C     -303.240    -334.042    -144.036
  O     -303.048    -334.499    -145.361
  O     -301.445    -334.958    -147.370
  O     -301.695    -332.632    -146.359
  H     -302.011    -332.462    -147.269
  H     -303.940    -334.706    -143.533
  H     -303.653    -333.034    -144.061
  H     -302.299    -334.038    -143.469
  H     -299.087    -336.505    -137.814
  H     -299.967    -335.026    -138.116
  H     -298.873    -335.655    -139.325

 3  4  5  6  7  8  9  10  11  12  13  23  28  29  30  31  32 0
 6-311+G(2d,p)
 ****
 33  34 0
 6-311+G(2d,p)
 ****
 1  2  14  15  16  17  18  19  20  21  22  24  25  26  27 0
 3-21G
 ****
 35  36  37  38  39  40  41  42  43  44  45 0
 3-21G
 ****


