%nproc=1
%NoSave
%Mem=1900MB
#P OB98/GEN NMR

erre ene a

0 1
  C      265.217    -520.470     243.598
  O      264.440    -521.358     244.404
  P      264.488    -521.212     246.001
  C      266.983    -521.738     246.367
  O      265.967    -520.746     246.435
  C      268.166    -521.424     247.291
  O      269.135    -522.508     247.274
  C      268.919    -520.132     246.943
  O      269.345    -519.544     248.186
  C      270.112    -520.649     246.166
  O      271.173    -519.700     246.097
  C      270.420    -521.934     246.953
  N      271.257    -522.864     246.197
  C      272.642    -522.664     246.253
  O      273.096    -521.671     246.828
  N      273.452    -523.572     245.628
  C      272.928    -524.495     244.887
  N      273.772    -525.394     244.304
  C      271.473    -524.634     244.671
  C      270.712    -523.804     245.371
  O      263.949    -522.374     246.766
  O      263.615    -519.898     246.264
  H      271.900    -520.083     245.563
  H      263.132    -520.002     247.104
  H      271.093    -525.368     243.977
  H      269.632    -523.823     245.280
  H      270.923    -521.702     247.903
  H      269.807    -520.890     245.138
  H      268.312    -519.407     246.395
  H      267.775    -521.354     248.314
  H      274.770    -525.277     244.441
  H      267.348    -521.805     245.332
  H      273.438    -526.180     243.748
  H      266.541    -522.714     246.591
  P      268.611    -518.219     248.705
  C      270.037    -516.442     247.444
  O      268.788    -517.079     247.582
  O      269.618    -517.706     249.850
  O      267.244    -518.394     249.281
  H      269.125    -517.162     250.484
  H      270.069    -515.927     246.479
  H      270.864    -517.158     247.490
  H      270.164    -515.702     248.250
  H      265.069    -520.705     242.565
  H      266.253    -520.579     243.844
  H      264.911    -519.461     243.782

 3  4  5  6  7  8  9  10  11  12  13  23  27  28  29  30  32 0
 6-311+G(2d,p)
 ****
 34  35 0
 6-311+G(2d,p)
 ****
 1  2  14  15  16  17  18  19  20  21  22  24  25  26 0
 3-21G
 ****
 31  33  36  37  38  39  40  41  42  43  44  45  46 0
 3-21G
 ****


