%nproc=1
%NoSave
%Mem=1900MB
#P OB98/GEN NMR

erre ene a

0 1
  C     -598.435     889.328    -182.065
  O     -597.419     889.886    -182.868
  H     -598.531     889.890    -181.128
  H     -599.387     889.388    -182.602
  H     -598.215     888.281    -181.848
  P     -595.945     889.937    -182.242
  C     -596.062     892.526    -182.364
  O     -595.767     891.386    -181.563
  C     -595.429     893.770    -181.750
  O     -594.118     893.401    -181.233
  C     -595.233     894.950    -182.729
  O     -595.918     896.112    -182.240
  C     -593.743     895.221    -182.719
  O     -593.428     896.613    -182.724
  C     -593.273     894.552    -181.426
  N     -588.683     896.014    -183.084
  C     -589.784     896.722    -182.770
  N     -590.942     896.278    -182.230
  C     -590.882     894.956    -181.995
  C     -589.823     894.108    -182.240
  C     -588.675     894.675    -182.828
  N     -587.576     893.935    -183.206
  N     -590.140     892.807    -181.877
  C     -591.387     892.870    -181.455
  N     -591.883     894.146    -181.523
  O     -594.996     890.008    -183.528
  O     -595.592     888.782    -181.359
  H     -592.455     896.687    -182.645
  H     -594.277     889.351    -183.441
  H     -589.738     897.782    -182.983
  H     -591.985     892.031    -181.127
  H     -593.383     895.206    -180.554
  H     -593.286     894.757    -183.598
  H     -595.585     894.712    -183.741
  H     -596.033     894.086    -180.891
  H     -597.146     892.668    -182.412
  H     -586.857     894.414    -183.721
  H     -587.607     892.930    -183.111
  H     -595.695     892.355    -183.384
  P     -597.426     896.353    -182.773
  C     -596.439     897.549    -184.868
  O     -597.334     896.553    -184.358
  O     -597.772     897.807    -182.226
  O     -598.404     895.321    -182.302
  H     -598.738     897.900    -182.098
  H     -596.491     897.561    -185.937
  H     -595.439     897.321    -184.562
  H     -596.718     898.509    -184.486

 6  7  8  9  10  11  12  13  14  15  25  28  32  33  34  35 0
 6-311+G(2d,p)
 ****
 36  39  40 0
 6-311+G(2d,p)
 ****
 1  2  3  4  5  16  17  18  19  20  21  22  23  24 0
 3-21G
 ****
 26  27  29  30  31  37  38  41  42  43  44  45  46  47  48 0
 3-21G
 ****


