%nproc=1
%NoSave
%Mem=1900MB
#P OB98/GEN NMR

erre ene a

0 1
  C      448.012     176.769     801.008
  O      449.235     176.822     800.292
  H      448.238     176.712     802.084
  H      447.447     175.874     800.722
  H      447.417     177.665     800.818
  P      449.135     177.086     798.711
  C      448.266     174.667     798.164
  O      449.275     175.656     797.988
  C      448.091     173.865     796.877
  O      447.735     174.733     795.772
  C      449.357     173.172     796.406
  O      449.713     172.072     797.218
  C      448.946     172.786     794.988
  O      448.119     171.616     794.996
  C      448.135     174.040     794.552
  N      448.889     174.908     793.659
  C      448.886     174.524     792.300
  O      448.268     173.534     791.940
  N      449.611     175.283     791.423
  C      450.252     176.325     791.838
  N      450.963     177.040     790.904
  C      450.258     176.775     793.238
  C      449.561     176.023     794.091
  O      450.538     177.788     798.387
  O      447.935     177.864     798.272
  H      448.697     170.877     795.274
  H      451.303     177.277     798.695
  H      450.802     177.672     793.539
  H      449.525     176.275     795.139
  H      447.212     173.728     794.048
  H      449.808     172.555     794.359
  H      450.179     173.892     796.330
  H      447.271     173.151     797.028
  H      450.946     176.692     789.950
  H      447.321     175.118     798.479
  H      451.521     177.849     791.111
  H      448.600     174.000     798.977
  P      451.227     171.874     797.707
  C      451.857     171.023     795.350
  O      451.864     170.748     796.760
  O      451.399     171.627     799.179
  O      451.963     173.203     797.185
  H      451.933     173.342     796.220
  H      452.305     170.205     794.825
  H      452.413     171.917     795.158
  H      450.848     171.151     795.017

 6  7  8  9  10  11  12  13  14  15  16  26  30  31  32  33  35 0
 6-311+G(2d,p)
 ****
 37  38 0
 6-311+G(2d,p)
 ****
 1  2  3  4  5  17  18  19  20  21  22  23  24  25 0
 3-21G
 ****
 27  28  29  34  36  39  40  41  42  43  44  45  46 0
 3-21G
 ****


