%nproc=1
%NoSave
%Mem=1900MB
#P OB98/GEN NMR

erre ene a

0 1
  C     -465.691     273.678     343.671
  O     -465.460     272.759     344.724
  H     -464.950     273.505     342.886
  H     -465.579     274.701     344.040
  H     -466.691     273.538     343.252
  P     -466.551     272.728     345.902
  C     -468.423     271.175     344.911
  O     -467.298     271.315     345.760
  C     -469.522     270.360     345.594
  O     -470.742     270.476     344.818
  C     -469.190     268.870     345.726
  O     -469.733     268.394     346.958
  C     -469.941     268.240     344.565
  O     -470.204     266.858     344.785
  C     -471.187     269.141     344.489
  N     -471.830     269.096     343.180
  C     -472.242     267.833     342.729
  O     -472.045     266.835     343.418
  N     -472.827     267.732     341.493
  C     -472.934     268.785     340.740
  N     -473.502     268.610     339.517
  C     -472.476     270.122     341.158
  C     -471.947     270.208     342.379
  O     -467.630     273.788     345.379
  O     -466.004     273.024     347.258
  H     -470.506     266.459     343.940
  H     -467.843     273.687     344.435
  H     -472.572     270.968     340.491
  H     -471.591     271.151     342.768
  H     -471.921     268.841     345.248
  H     -469.354     268.327     343.643
  H     -468.116     268.674     345.693
  H     -469.724     270.807     346.575
  H     -473.781     267.669     339.263
  H     -468.135     270.684     343.974
  H     -473.582     269.345     338.828
  H     -468.791     272.178     344.667
  P     -468.784     267.643     348.002
  C     -467.199     269.419     349.009
  O     -468.384     268.652     349.181
  O     -467.651     266.871     347.416
  O     -469.802     266.643     348.748
  H     -469.343     265.784     348.869
  H     -467.052     270.045     349.864
  H     -467.292     270.027     348.133
  H     -466.362     268.762     348.900

 6  7  8  9  10  11  12  13  14  15  16  26  30  31  32  33  35 0
 6-311+G(2d,p)
 ****
 37  38 0
 6-311+G(2d,p)
 ****
 1  2  3  4  5  17  18  19  20  21  22  23  24  25 0
 3-21G
 ****
 27  28  29  34  36  39  40  41  42  43  44  45  46 0
 3-21G
 ****


