%nproc=1
%NoSave
%Mem=1900MB
#P OB98/GEN NMR

erre ene a

0 1
  C       99.479     352.772     110.280
  O       98.577     353.705     109.710
  P       98.387     355.108     110.478
  C       97.467     355.805     112.809
  O       97.555     354.798     111.811
  C       96.946     355.210     114.119
  O       97.703     354.030     114.458
  C       97.064     356.131     115.323
  O       96.063     357.134     115.301
  C       96.920     355.118     116.459
  O       95.541     354.778     116.644
  C       97.699     353.909     115.901
  N      100.658     353.415     120.052
  C       99.323     353.476     119.900
  N       98.606     353.634     118.769
  C       99.419     353.719     117.704
  C      100.805     353.694     117.700
  C      101.437     353.535     118.942
  N      102.807     353.472     119.089
  N      101.293     353.839     116.419
  C      100.225     353.935     115.662
  N       99.064     353.858     116.387
  O       97.337     355.879     109.558
  O       99.649     355.888     110.675
  H       95.266     354.238     115.879
  H       97.513     356.843     109.557
  H       98.740     353.385     120.821
  H      100.235     354.055     114.586
  H       97.221     352.957     116.156
  H       97.307     355.494     117.411
  H       98.054     356.597     115.357
  H       95.897     354.915     113.962
  H       96.773     356.591     112.476
  H      103.180     353.503     120.027
  H      103.379     353.704     118.285
  H       98.456     356.256     112.948
  P       96.230     358.358     116.323
  C       96.248     358.221     118.891
  O       95.614     357.797     117.696
  O       95.092     359.363     115.816
  O       97.604     358.927     116.407
  H       94.234     358.911     115.690
  H       95.702     357.810     119.744
  H       96.239     359.314     118.951
  H       97.280     357.856     118.915
  H       99.510     351.890     109.674
  H       99.152     352.516     111.266
  H      100.456     353.205     110.330

 3  4  5  6  7  8  9  10  11  12  22  25  29  30  31  32 0
 6-311+G(2d,p)
 ****
 33  36  37 0
 6-311+G(2d,p)
 ****
 1  2  13  14  15  16  17  18  19  20  21  23  24  26 0
 3-21G
 ****
 27  28  34  35  38  39  40  41  42  43  44  45  46  47  48 0
 3-21G
 ****


