%nproc=1
%NoSave
%Mem=1900MB
#P OB98/GEN NMR

erre ene a

0 1
  C        6.454     -24.557    -113.357
  O        5.633     -24.613    -114.506
  H        6.679     -23.510    -113.137
  H        7.393     -25.087    -113.539
  H        5.939     -24.996    -112.499
  P        5.151     -26.069    -114.977
  C        2.855     -26.061    -113.758
  O        4.166     -26.608    -113.831
  C        1.931     -27.031    -113.026
  O        0.723     -26.341    -112.632
  C        1.471     -28.214    -113.870
  O        2.463     -29.222    -113.956
  C        0.225     -28.651    -113.112
  O        0.553     -29.498    -112.002
  C       -0.341     -27.319    -112.604
  N       -5.370     -26.498    -112.590
  C       -4.517     -26.898    -111.621
  N       -3.181     -27.075    -111.702
  C       -2.741     -26.782    -112.938
  C       -3.491     -26.370    -114.025
  C       -4.872     -26.225    -113.818
  N       -5.745     -25.852    -114.812
  N       -2.687     -26.214    -115.137
  C       -1.472     -26.516    -114.725
  N       -1.458     -26.860    -113.403
  O        6.470     -26.959    -114.793
  O        4.615     -26.143    -116.367
  H        1.045     -28.945    -111.366
  H        6.950     -27.010    -115.640
  H       -4.968     -27.108    -110.655
  H       -0.582     -26.509    -115.343
  H       -0.690     -27.386    -111.567
  H       -0.456     -29.209    -113.755
  H        1.176     -27.875    -114.870
  H        2.439     -27.376    -112.116
  H        2.474     -25.897    -114.772
  H        2.900     -25.101    -113.234
  H       -6.727     -25.790    -114.597
  H       -5.399     -25.750    -115.756
  P        2.315     -30.347    -115.085
  C        4.193     -29.487    -116.664
  O        2.805     -29.710    -116.474
  O        0.731     -30.478    -115.266
  O        2.949     -31.655    -114.751
  H        0.396     -31.257    -114.785
  H        4.357     -29.061    -117.632
  H        4.717     -30.417    -116.590
  H        4.552     -28.814    -115.913

 6  7  8  9  10  11  12  13  14  15  25  28  32  33  34  35 0
 6-311+G(2d,p)
 ****
 36  37  40 0
 6-311+G(2d,p)
 ****
 1  2  3  4  5  16  17  18  19  20  21  22  23  24 0
 3-21G
 ****
 26  27  29  30  31  38  39 41  42  43  44  45  46  47  48 0
 3-21G
 ****


