%nproc=1
%NoSave
%Mem=1900MB
#P OB98/GEN NMR

erre ene a

0 1
  C      125.291     -30.016      41.788
  O      124.015     -29.786      41.210
  P      123.770     -28.554      40.208
  C      124.492     -26.088      40.293
  O      124.172     -27.249      41.050
  C      124.055     -24.832      41.043
  O      122.609     -24.762      41.008
  C      124.425     -24.778      42.527
  O      125.737     -24.307      42.792
  C      123.410     -23.757      43.031
  O      123.853     -22.425      42.699
  C      122.158     -24.115      42.227
  N      118.784     -24.473      46.061
  C      119.482     -23.425      45.563
  N      120.378     -23.414      44.552
  C      120.489     -24.639      44.007
  C      119.841     -25.799      44.403
  C      118.949     -25.685      45.484
  N      118.222     -26.751      45.974
  N      120.230     -26.869      43.616
  C      121.085     -26.353      42.758
  N      121.271     -25.011      42.948
  O      122.424     -28.532      39.574
  O      124.956     -28.671      39.143
  H      123.211     -21.806      43.098
  H      124.750     -28.137      38.350
  H      119.304     -22.465      46.048
  H      121.599     -26.911      41.987
  H      121.579     -23.231      41.933
  H      123.281     -23.787      44.118
  H      124.240     -25.741      43.020
  H      124.448     -23.954      40.513
  H      123.958     -26.140      39.337
  H      117.513     -26.550      46.663
  H      118.222     -27.611      45.446
  H      125.568     -26.070      40.084
  P      126.524     -24.981      44.024
  C      126.573     -24.430      46.582
  O      126.315     -23.987      45.265
  O      127.935     -25.356      43.727
  O      125.593     -26.236      44.393
  H      124.720     -26.009      44.756
  H      126.529     -23.565      47.255
  H      127.566     -24.876      46.656
  H      125.814     -25.154      46.889
  H      125.246     -30.878      42.420
  H      125.579     -29.164      42.367
  H      126.010     -30.180      41.012

 3  4  5  6  7  8  9  10  11  12  22  25  29  30  31  32 0
 6-311+G(2d,p)
 ****
 33  36  37 0
 6-311+G(2d,p)
 ****
 1  2  13  14  15  16  17  18  19  20  21  23  24  26 0
 3-21G
 ****
 27  28  34  35  38  39  40  41  42  43  44  45  46  47  48 0
 3-21G
 ****


