%nproc=1
%NoSave
%Mem=1900MB
#P OB98/GEN NMR

erre ene a

0 1
  C      -94.692     275.054    -121.190
  O      -93.858     275.243    -120.064
  H      -94.214     275.506    -122.062
  H      -95.656     275.543    -121.025
  H      -94.845     273.988    -121.382
  P      -94.246     274.461    -118.720
  C      -92.960     272.771    -117.220
  O      -92.879     273.855    -118.134
  C      -91.627     272.026    -117.172
  O      -91.365     271.459    -118.489
  C      -90.428     272.914    -116.809
  O      -89.518     272.142    -116.017
  C      -89.792     273.201    -118.157
  O      -88.417     273.550    -118.086
  C      -90.042     271.874    -118.882
  N      -89.940     272.000    -120.335
  C      -88.703     272.355    -120.861
  O      -87.672     272.486    -120.203
  N      -88.674     272.562    -122.217
  C      -89.738     272.475    -123.067
  O      -89.654     272.695    -124.270
  C      -91.019     272.107    -122.452
  C      -91.063     271.891    -121.134
  O      -95.021     273.172    -119.265
  O      -95.052     275.240    -117.735
  H      -95.975     273.357    -119.346
  H      -88.338     274.297    -117.457
  H      -87.786     272.821    -122.613
  H      -91.888     272.039    -123.094
  H      -91.997     271.638    -120.644
  H      -89.342     271.110    -118.529
  H      -90.325     274.022    -118.653
  H      -90.696     273.832    -116.277
  H      -91.717     271.186    -116.474
  H      -93.743     272.079    -117.545
  H      -93.219     273.156    -116.227
  P      -89.439     272.477    -114.448
  C      -89.383     270.818    -112.421
  O      -88.957     271.121    -113.742
  O      -90.989     272.590    -114.080
  O      -88.625     273.692    -114.152
  H      -91.548     271.970    -114.580
  H      -88.965     269.881    -112.118
  H      -90.451     270.757    -112.396
  H      -89.054     271.588    -111.755

 6  7  8  9  10  11  12  13  14  15  16  27  31  32  33  34  35 0
 6-311+G(2d,p)
 ****
 36  37 0
 6-311+G(2d,p)
 ****
 1  2  3  4  5  17  18  19  20  21  22  23  24  25 0
 3-21G
 ****
 26  28  29  30  38  39  40  41  42  43  44  45 0
 3-21G
 ****


