%nproc=1
%NoSave
%Mem=1900MB
#P OB98/GEN NMR

erre ene a

0 1
  C      123.754     170.177      90.676
  O      124.358     168.933      90.362
  P      124.106     168.346      88.889
  C      123.288     166.064      89.848
  O      122.998     167.196      89.032
  C      122.159     165.836      90.852
  O      121.588     167.101      91.251
  C      120.990     165.017      90.316
  O      121.317     163.638      90.258
  C      119.910     165.375      91.332
  O      120.101     164.619      92.540
  C      120.194     166.864      91.590
  N      115.899     169.653      91.542
  C      116.442     168.850      92.484
  N      117.579     168.123      92.413
  C      118.174     168.288      91.223
  C      117.727     169.055      90.158
  C      116.530     169.764      90.347
  N      115.976     170.577      89.382
  N      118.591     168.959      89.086
  C      119.552     168.159      89.502
  N      119.353     167.740      90.792
  O      125.449     167.531      88.588
  O      123.825     169.375      87.838
  H      121.056     164.640      92.748
  H      125.676     167.574      87.639
  H      115.895     168.785      93.420
  H      120.409     167.861      88.915
  H      120.057     167.140      92.641
  H      118.895     165.169      90.973
  H      120.697     165.371      89.319
  H      122.587     165.357      91.741
  H      124.220     166.239      90.397
  H      115.043     170.928      89.544
  H      116.371     170.546      88.452
  H      123.422     165.191      89.205
  P      121.277     162.932      88.814
  C      119.016     162.160      89.768
  O      119.723     162.576      88.610
  O      121.923     161.506      89.133
  O      121.916     163.709      87.717
  H      121.525     161.091      89.921
  H      117.968     162.003      89.498
  H      119.072     162.931      90.542
  H      119.431     161.221      90.142
  H      124.001     170.450      91.681
  H      122.692     170.092      90.580
  H      124.114     170.928      90.004

 3  4  5  6  7  8  9  10  11  12  22  25  29  30  31  32 0
 6-311+G(2d,p)
 ****
 33  36  37 0
 6-311+G(2d,p)
 ****
 1  2  13  14  15  16  17  18  19  20  21  23  24  26 0
 3-21G
 ****
 27  28  34  35  38  39  40  41  42  43  44  45  46  47  48 0
 3-21G
 ****


