%nproc=1
%NoSave
%Mem=1900MB
#P OB98/GEN NMR

erre ene a

0 1
  C     -134.494     -29.106    -481.551
  O     -133.641     -30.122    -482.037
  H     -134.010     -28.140    -481.728
  H     -134.655     -29.216    -480.478
  H     -135.450     -29.126    -482.081
  P     -134.011     -31.660    -481.730
  C     -133.146     -33.426    -480.081
  O     -133.110     -32.055    -480.444
  C     -132.050     -33.767    -479.059
  O     -130.749     -33.472    -479.630
  C     -132.164     -32.980    -477.745
  O     -132.012     -33.878    -476.644
  C     -130.998     -32.003    -477.806
  O     -130.586     -31.575    -476.508
  C     -129.971     -32.814    -478.605
  N     -128.911     -31.990    -479.175
  C     -127.789     -31.769    -478.369
  O     -127.752     -32.222    -477.225
  N     -126.758     -31.006    -478.860
  C     -126.858     -30.458    -480.034
  N     -125.812     -29.706    -480.459
  C     -128.055     -30.633    -480.910
  C     -129.022     -31.412    -480.420
  O     -133.874     -32.576    -482.894
  O     -135.492     -31.604    -481.122
  H     -129.671     -31.192    -476.590
  H     -135.913     -32.495    -481.205
  H     -128.088     -30.155    -481.874
  H     -129.920     -31.596    -480.990
  H     -129.514     -33.594    -477.977
  H     -131.300     -31.110    -478.380
  H     -133.117     -32.460    -477.637
  H     -132.063     -34.849    -478.881
  H     -125.018     -29.612    -479.830
  H     -133.023     -34.035    -480.989
  H     -125.783     -29.233    -481.353
  H     -134.125     -33.640    -479.636
  P     -133.097     -33.753    -475.464
  C     -133.039     -33.123    -472.946
  O     -132.373     -33.055    -474.206
  O     -133.301     -35.269    -474.992
  O     -134.378     -33.117    -475.901
  H     -134.124     -35.630    -475.381
  H     -132.451     -32.623    -472.205
  H     -133.169     -34.148    -472.666
  H     -133.996     -32.650    -473.022

 6  7  8  9  10  11  12  13  14  15  16  26  30  31  32  33  35 0
 6-311+G(2d,p)
 ****
 37  38 0
 6-311+G(2d,p)
 ****
 1  2  3  4  5  17  18  19  20  21  22  23  24  25 0
 3-21G
 ****
 27  28  29  34  36  39  40  41  42  43  44  45  46 0
 3-21G
 ****


