%nproc=1
%NoSave
%Mem=1900MB
#P OB98/GEN NMR

erre ene a

0 1
  C      548.175     118.255    -421.047
  O      547.162     117.572    -421.784
  P      547.606     116.491    -422.879
  C      546.865     114.581    -421.200
  O      547.753     115.056    -422.193
  C      546.593     113.087    -421.439
  O      546.040     112.879    -422.763
  C      547.847     112.221    -421.343
  O      548.112     111.821    -420.013
  C      547.504     111.065    -422.263
  O      546.613     110.146    -421.605
  C      546.772     111.801    -423.410
  N      547.588     112.372    -424.506
  C      548.511     111.571    -425.172
  O      548.716     110.385    -424.914
  N      549.214     112.170    -426.183
  C      548.979     113.411    -426.703
  O      549.596     113.882    -427.650
  C      547.891     114.163    -426.065
  C      547.267     113.626    -425.009
  O      549.113     116.902    -423.228
  O      546.739     116.451    -424.096
  H      545.747     110.585    -421.536
  H      549.183     117.183    -424.159
  H      549.937     111.629    -426.632
  H      547.636     115.132    -426.474
  H      546.463     114.177    -424.528
  H      546.032     111.142    -423.881
  H      548.394     110.492    -422.524
  H      548.705     112.749    -421.773
  H      545.850     112.745    -420.711
  H      545.924     115.136    -421.221
  H      547.305     114.729    -420.214
  P      549.259     112.560    -419.167
  C      547.657     113.260    -417.293
  O      548.509     113.705    -418.327
  O      550.453     113.014    -419.943
  O      549.639     111.497    -418.036
  H      550.429     110.971    -418.302
  H      547.335     114.122    -416.699
  H      548.184     112.560    -416.635
  H      546.771     112.776    -417.714
  H      547.718     118.938    -420.361
  H      548.804     118.796    -421.723
  H      548.762     117.544    -420.504

 3  4  5  6  7  8  9  10  11  12  13  23  28  29  30  31  32 0
 6-311+G(2d,p)
 ****
 33  34 0
 6-311+G(2d,p)
 ****
 1  2  14  15  16  17  18  19  20  21  22  24  25  26  27 0
 3-21G
 ****
 35  36  37  38  39  40  41  42  43  44  45 0
 3-21G
 ****


