%nproc=1
%NoSave
%Mem=1900MB
#P OB98/GEN NMR

erre ene a

0 1
  C       71.561     108.957     168.452
  O       70.669     108.699     167.390
  P       69.084     108.643     167.650
  C       67.627     107.013     169.006
  O       68.769     107.156     168.164
  C       67.759     105.755     169.861
  O       68.812     105.900     170.857
  C       66.519     105.425     170.678
  O       65.351     105.062     169.978
  C       67.074     104.414     171.671
  O       67.159     103.112     171.088
  C       68.491     104.990     171.931
  N       68.585     105.647     173.238
  C       68.699     104.796     174.332
  O       68.729     103.567     174.247
  N       68.761     105.407     175.553
  C       68.667     106.750     175.789
  O       68.679     107.227     176.921
  C       68.524     107.594     174.593
  C       68.489     107.012     173.390
  O       68.241     109.102     166.510
  O       68.900     109.512     168.989
  H       67.394     102.490     171.797
  H       69.387     109.175     169.759
  H       68.829     104.813     176.371
  H       68.456     108.667     174.745
  H       68.387     107.615     172.492
  H       69.239     104.185     171.898
  H       66.446     104.330     172.563
  H       66.242     106.323     171.258
  H       68.046     104.923     169.208
  H       66.735     106.927     168.376
  H       67.512     107.910     169.631
  P       63.940     104.803     170.684
  C       63.239     103.318     172.684
  O       64.031     103.448     171.523
  O       62.723     105.015     169.836
  O       63.951     105.914     171.841
  H       63.042     106.207     172.022
  H       63.461     102.355     173.158
  H       62.180     103.341     172.432
  H       63.473     104.114     173.399
  H       72.565     108.954     168.083
  H       71.454     108.199     169.200
  H       71.341     109.913     168.879

 3  4  5  6  7  8  9  10  11  12  13  23  28  29  30  31  32 0
 6-311+G(2d,p)
 ****
 33  34 0
 6-311+G(2d,p)
 ****
 1  2  14  15  16  17  18  19  20  21  22  24  25  26  27 0
 3-21G
 ****
 35  36  37  38  39  40  41  42  43  44  45 0
 3-21G
 ****


