%nproc=1
%NoSave
%Mem=1900MB
#P OB98/GEN NMR

erre ene a

0 1
  C     -510.200     320.602     465.118
  O     -510.474     320.757     463.739
  H     -509.259     321.109     465.344
  H     -510.096     319.542     465.365
  H     -510.992     321.049     465.722
  P     -511.887     320.250     463.173
  C     -512.985     322.561     463.487
  O     -513.012     321.181     463.828
  C     -514.302     323.225     463.884
  O     -515.326     322.914     462.911
  C     -514.851     322.744     465.226
  O     -514.142     323.309     466.308
  C     -516.304     323.180     465.108
  O     -516.460     324.566     465.440
  C     -516.593     322.943     463.605
  N     -517.346     321.702     463.381
  C     -518.673     321.704     463.797
  O     -519.223     322.672     464.320
  N     -519.345     320.521     463.654
  C     -518.781     319.330     463.275
  O     -519.356     318.254     463.397
  C     -517.400     319.402     462.789
  C     -516.748     320.567     462.874
  O     -512.135     318.781     463.273
  O     -511.871     320.734     461.645
  H     -511.665     319.976     461.067
  H     -517.424     324.735     465.431
  H     -520.293     320.499     463.991
  H     -516.944     318.497     462.413
  H     -515.710     320.635     462.559
  H     -517.168     323.777     463.189
  H     -516.949     322.601     465.771
  H     -514.807     321.648     465.268
  H     -514.154     324.317     463.888
  H     -512.845     322.652     462.402
  H     -512.139     323.037     463.995
  P     -514.219     322.634     467.762
  C     -512.982     320.587     466.807
  O     -514.087     321.039     467.582
  O     -515.362     323.073     468.609
  O     -512.825     323.024     468.449
  H     -513.003     323.399     469.331
  H     -512.996     319.518     466.756
  H     -512.070     320.910     467.264
  H     -513.050     320.992     465.819

 6  7  8  9  10  11  12  13  14  15  16  27  31  32  33  34  35 0
 6-311+G(2d,p)
 ****
 36  37 0
 6-311+G(2d,p)
 ****
 1  2  3  4  5  17  18  19  20  21  22  23  24  25 0
 3-21G
 ****
 26  28  29  30  38  39  40  41  42  43  44  45 0
 3-21G
 ****


