%nproc=1
%NoSave
%Mem=1900MB
#P OB98/GEN NMR

erre ene a

0 1
  C      658.946     586.206     207.419
  O      659.246     585.729     208.718
  H      657.920     586.588     207.411
  H      659.013     585.400     206.682
  H      659.622     587.017     207.141
  P      660.642     584.980     208.941
  C      659.113     582.919     209.284
  O      660.327     583.415     208.741
  C      658.909     581.467     208.856
  O      658.876     581.364     207.418
  C      660.031     580.540     209.302
  O      659.926     580.247     210.684
  C      659.838     579.371     208.365
  O      658.772     578.514     208.815
  C      659.443     580.093     207.056
  N      660.579     580.262     206.148
  C      660.863     579.177     205.312
  O      660.185     578.149     205.358
  N      661.943     579.270     204.457
  C      662.647     580.362     204.425
  N      663.702     580.391     203.554
  C      662.370     581.537     205.277
  C      661.334     581.408     206.108
  O      661.393     585.296     210.200
  O      661.488     585.352     207.631
  H      658.848     578.486     209.787
  H      661.995     586.174     207.779
  H      662.989     582.418     205.215
  H      661.062     582.229     206.763
  H      658.662     579.529     206.529
  H      660.742     578.766     208.281
  H      661.006     580.994     209.083
  H      657.938     581.123     209.243
  H      663.852     579.557     203.001
  H      658.306     583.537     208.890
  H      664.263     581.199     203.379
  H      659.124     582.992     210.378
  P      661.146     579.595     211.485
  C      659.713     577.656     212.404
  O      660.816     578.020     211.571
  O      661.492     580.252     212.774
  O      662.345     579.637     210.403
  H      662.691     580.553     210.297
  H      659.587     576.594     212.385
  H      658.823     578.127     212.043
  H      659.903     577.975     213.407

 6  7  8  9  10  11  12  13  14  15  16  26  30  31  32  33  35 0
 6-311+G(2d,p)
 ****
 37  38 0
 6-311+G(2d,p)
 ****
 1  2  3  4  5  17  18  19  20  21  22  23  24  25 0
 3-21G
 ****
 27  28  29  34  36  39  40  41  42  43  44  45  46 0
 3-21G
 ****


