%nproc=1
%NoSave
%Mem=1900MB
#P OB98/GEN NMR

erre ene a

0 1
  C      316.792     395.701     537.406
  O      316.266     396.194     536.188
  H      317.512     396.424     537.791
  H      317.309     394.753     537.237
  H      315.999     395.568     538.147
  P      315.101     395.360     535.457
  C      316.026     395.425     533.061
  O      315.029     395.907     533.946
  C      316.309     396.451     531.967
  O      315.189     396.477     531.045
  C      316.505     397.881     532.489
  O      317.529     398.512     531.714
  C      315.174     398.548     532.227
  O      315.294     399.958     532.069
  C      314.717     397.836     530.951
  N      310.777     400.794     529.850
  C      312.125     401.065     529.822
  N      312.489     402.325     529.472
  N      313.046     400.188     530.112
  C      312.547     398.970     530.430
  C      311.230     398.581     530.489
  C      310.221     399.559     530.181
  O      309.007     399.385     530.198
  N      311.118     397.262     530.882
  C      312.370     396.867     531.049
  N      313.272     397.864     530.805
  O      313.787     395.335     536.167
  O      315.720     393.897     535.295
  H      315.657     400.318     532.903
  H      315.377     393.299     535.983
  H      310.107     401.517     529.620
  H      312.668     395.868     531.365
  H      315.136     398.285     530.038
  H      314.486     398.354     533.056
  H      311.835     403.047     529.220
  H      316.781     397.912     533.555
  H      313.483     402.534     529.428
  H      317.188     396.123     531.390
  H      315.665     394.496     532.606
  H      316.949     395.217     533.623
  P      318.847     399.047     532.454
  C      319.571     401.400     531.692
  O      319.641     400.003     531.433
  O      319.679     397.998     533.129
  O      318.261     400.094     533.525
  H      318.854     400.113     534.297
  H      320.134     401.929     530.951
  H      319.977     401.604     532.661
  H      318.550     401.718     531.659

 6  7  8  9  10  11  12  13  14  15  26  29  33  34 0
 6-311+G(2d,p)
 ****
 36  38  39  40  41 0
 6-311+G(2d,p)
 ****
 1  2  3  4  5  16  17  18  19  20  21  22  23  24  25 0
 3-21G
 ****
 27  28  30  31  32  35  37  42  43  44  45  46  47 0
 3-21G
 ****
 48  49 0
 3-21G
 ****


