%nproc=1
%NoSave
%Mem=1900MB
#P OB98/GEN NMR

erre ene a

0 1
  C      322.311     -40.191     668.042
  O      322.831     -40.381     669.348
  P      323.587     -39.144     670.039
  C      321.481     -38.345     671.396
  O      322.444     -38.078     670.391
  C      321.570     -37.293     672.505
  O      321.239     -35.993     671.979
  C      320.612     -37.516     673.669
  O      321.068     -38.540     674.539
  C      320.572     -36.125     674.289
  O      321.729     -35.913     675.117
  C      320.641     -35.221     673.041
  N      319.340     -34.689     672.644
  C      318.912     -33.545     673.309
  O      319.573     -32.990     674.185
  N      317.681     -33.067     672.944
  C      316.829     -33.642     672.047
  O      315.720     -33.196     671.788
  C      317.321     -34.868     671.400
  C      318.532     -35.326     671.722
  O      324.349     -38.524     668.777
  O      324.463     -39.553     671.171
  H      323.884     -38.715     667.944
  H      321.723     -36.624     675.789
  H      317.360     -32.224     673.396
  H      316.670     -35.360     670.688
  H      318.908     -36.233     671.262
  H      321.317     -34.376     673.223
  H      319.687     -35.965     674.916
  H      319.616     -37.775     673.288
  H      322.607     -37.262     672.865
  H      321.668     -39.335     671.817
  H      320.483     -38.340     670.946
  P      319.939     -39.494     675.178
  C      320.559     -41.610     673.778
  O      319.616     -40.606     674.072
  O      318.664     -38.527     675.155
  O      320.296     -40.019     676.531
  H      318.591     -38.018     674.332
  H      320.043     -42.445     673.294
  H      321.049     -41.976     674.684
  H      321.313     -41.217     673.089
  H      321.838     -41.092     667.712
  H      323.108     -39.941     667.374
  H      321.594     -39.397     668.056

 3  4  5  6  7  8  9  10  11  12  13  24  28  29  30  31  32 0
 6-311+G(2d,p)
 ****
 33  34 0
 6-311+G(2d,p)
 ****
 1  2  14  15  16  17  18  19  20  21  22  23  25  26  27 0
 3-21G
 ****
 35  36  37  38  39  40  41  42  43  44  45 0
 3-21G
 ****


