%nproc=1
%NoSave
%Mem=1900MB
#P OB98/GEN NMR

erre ene a

0 1
  C     -386.906    -496.262     332.070
  O     -387.811    -496.990     331.258
  H     -387.268    -495.232     332.156
  H     -385.917    -496.245     331.608
  H     -386.846    -496.698     333.071
  P     -387.630    -498.576     331.133
  C     -386.153    -498.371     329.020
  O     -387.359    -498.888     329.583
  C     -386.003    -498.847     327.581
  O     -385.637    -500.247     327.554
  C     -387.278    -498.735     326.751
  O     -387.518    -497.393     326.373
  C     -386.954    -499.681     325.604
  O     -386.113    -499.043     324.636
  C     -386.188    -500.811     326.344
  N     -387.023    -501.973     326.639
  C     -387.153    -502.922     325.630
  O     -386.639    -502.793     324.519
  N     -387.919    -504.019     325.931
  C     -388.618    -504.215     327.094
  O     -389.330    -505.198     327.291
  C     -388.469    -503.168     328.115
  C     -387.695    -502.116     327.845
  O     -388.702    -499.406     331.763
  O     -386.201    -498.847     331.806
  H     -385.977    -499.690     323.912
  H     -386.323    -499.176     332.717
  H     -388.035    -504.714     325.212
  H     -389.017    -503.286     329.035
  H     -387.582    -501.324     328.582
  H     -385.339    -501.152     325.735
  H     -387.847    -500.021     325.069
  H     -388.133    -499.143     327.312
  H     -385.184    -498.276     327.117
  H     -385.306    -498.734     329.621
  H     -386.184    -497.277     329.071
  P     -388.754    -496.585     326.977
  C     -389.842    -495.993     324.730
  O     -389.194    -495.480     325.891
  O     -388.557    -496.047     328.354
  O     -389.965    -497.631     326.936
  H     -390.162    -497.949     327.840
  H     -390.093    -495.185     324.075
  H     -390.734    -496.508     325.018
  H     -389.186    -496.671     324.225

 6  7  8  9  10  11  12  13  14  15  16  26  31  32  33  34  35 0
 6-311+G(2d,p)
 ****
 36  37 0
 6-311+G(2d,p)
 ****
 1  2  3  4  5  17  18  19  20  21  22  23  24  25 0
 3-21G
 ****
 27  28  29  30  38  39  40  41  42  43  44  45 0
 3-21G
 ****


