%nproc=1
%NoSave
%Mem=1900MB
#P OB98/GEN NMR

erre ene a

0 1
  C      -43.926     -32.682       2.047
  O      -43.726     -33.076       3.406
  P      -44.195     -32.023       4.524
  C      -46.334     -33.278       5.270
  O      -45.040     -32.822       5.632
  C      -47.033     -33.971       6.445
  O      -46.176     -34.992       7.035
  C      -47.431     -33.015       7.576
  O      -48.658     -33.510       8.129
  C      -46.318     -33.211       8.588
  O      -46.700     -32.754       9.883
  C      -46.105     -34.717       8.452
  N      -42.939     -34.289      12.361
  C      -44.094     -33.590      12.070
  N      -44.492     -32.676      12.980
  N      -44.799     -33.772      10.984
  C      -44.302     -34.747      10.184
  C      -43.179     -35.519      10.368
  C      -42.391     -35.284      11.560
  O      -41.365     -35.878      11.866
  N      -43.019     -36.427       9.348
  C      -44.012     -36.147       8.520
  N      -44.846     -35.178       9.006
  O      -45.295     -31.148       3.759
  O      -43.084     -31.179       5.055
  H      -47.497     -33.260      10.151
  H      -44.909     -30.301       3.469
  H      -42.426     -34.096      13.204
  H      -44.186     -36.631       7.574
  H      -46.892     -35.296       8.955
  H      -45.423     -32.660       8.277
  H      -44.024     -32.520      13.861
  H      -47.547     -31.972       7.269
  H      -45.357     -32.178      12.812
  H      -47.926     -34.478       6.060
  H      -46.263     -33.979       4.435
  H      -46.923     -32.429       4.905
  P      -49.825     -32.455       8.424
  C      -50.504     -30.970       6.417
  O      -50.620     -32.226       7.054
  O      -49.027     -31.080       8.627
  O      -50.662     -32.769       9.621
  H      -49.444     -30.564       9.342
  H      -50.677     -31.101       5.346
  H      -49.514     -30.530       6.563
  H      -51.262     -30.290       6.816
  H      -43.578     -33.457       1.396
  H      -43.381     -31.782       1.853
  H      -44.968     -32.512       1.875

 3  4  5  6  7  8  9  10  11  12  23  26  30  31 0
 6-311+G(2d,p)
 ****
 33  35  36  37  38 0
 6-311+G(2d,p)
 ****
 1  2  13  14  15  16  17  18  19  20  21  22  24  25 0
 3-21G
 ****
 27  28  29  32  34  39  40  41  42  43  44  45  46  47  48  49 0
 3-21G
 ****


