%nproc=1
%NoSave
%Mem=1900MB
#P OB98/GEN NMR

erre ene a

0 1
  C      158.557     -42.631     596.822
  O      157.821     -41.971     595.809
  H      158.965     -43.556     596.408
  H      157.906     -42.879     597.664
  H      159.383     -41.998     597.155
  P      157.101     -40.598     596.224
  C      155.283     -39.996     597.967
  O      156.021     -41.030     597.329
  C      153.810     -40.382     598.074
  O      153.672     -41.639     598.758
  C      152.955     -39.381     598.844
  O      152.553     -38.316     597.997
  C      151.771     -40.253     599.236
  O      150.861     -40.361     598.126
  C      152.432     -41.618     599.507
  N      150.611     -43.552     603.900
  C      150.001     -43.252     602.733
  N      150.535     -42.689     601.625
  C      151.841     -42.443     601.801
  C      152.600     -42.693     602.940
  C      151.930     -43.282     604.026
  N      152.555     -43.582     605.219
  N      153.907     -42.301     602.755
  C      153.953     -41.880     601.507
  N      152.720     -41.909     600.899
  O      156.592     -39.766     595.096
  O      158.245     -39.912     597.112
  H      151.405     -40.478     597.325
  H      158.682     -40.573     597.677
  H      148.946     -43.495     602.681
  H      154.854     -41.561     600.991
  H      151.814     -42.448     599.140
  H      151.206     -39.844     600.074
  H      153.458     -39.027     599.751
  H      153.421     -40.520     597.057
  H      155.382     -39.059     597.404
  H      151.965     -43.822     605.998
  H      153.502     -43.258     605.348
  H      155.711     -39.847     598.962
  P      152.545     -36.800     598.522
  C      151.855     -35.653     600.716
  O      151.892     -36.873     599.984
  O      151.925     -35.825     597.580
  O      154.080     -36.478     598.827
  H      154.212     -35.512     598.897
  H      151.401     -35.823     601.670
  H      151.284     -34.929     600.173
  H      152.852     -35.290     600.855

 6  7  8  9  10  11  12  13  14  15  25  28  32  33  34  35 0
 6-311+G(2d,p)
 ****
 36  39  40 0
 6-311+G(2d,p)
 ****
 1  2  3  4  5  16  17  18  19  20  21  22  23  24 0
 3-21G
 ****
 26  27  29  30  31  37  38  41  42  43  44  45  46  47 0
 3-21G
 ****
 48 0
 3-21G
 ****


