%nproc=1
%NoSave
%Mem=1900MB
#P OB98/GEN NMR

erre ene a

0 1
  C     -224.360     143.245     -72.648
  O     -225.768     143.415     -72.703
  P     -226.545     144.175     -71.525
  C     -226.759     143.925     -68.976
  O     -226.128     143.446     -70.157
  C     -226.093     143.338     -67.734
  O     -226.369     141.917     -67.681
  C     -224.578     143.508     -67.719
  O     -224.151     143.736     -66.373
  C     -224.042     142.161     -68.167
  O     -222.716     141.934     -67.663
  C     -225.115     141.213     -67.620
  N     -222.633     137.114     -69.459
  C     -222.221     138.140     -68.683
  N     -222.926     139.209     -68.254
  C     -224.203     139.124     -68.660
  C     -224.771     138.136     -69.450
  C     -223.925     137.091     -69.861
  N     -224.353     136.038     -70.641
  N     -226.105     138.405     -69.686
  C     -226.340     139.522     -69.034
  N     -225.226     139.990     -68.390
  O     -228.013     144.317     -71.729
  O     -225.819     145.594     -71.415
  H     -222.739     142.116     -66.700
  H     -226.473     146.296     -71.232
  H     -221.182     138.100     -68.370
  H     -227.289     140.037     -69.004
  H     -224.924     140.949     -66.573
  H     -223.997     142.128     -69.262
  H     -224.236     144.327     -68.363
  H     -226.545     143.795     -66.844
  H     -227.809     143.619     -68.998
  H     -223.710     135.277     -70.782
  H     -225.346     135.931     -70.794
  H     -226.717     145.019     -68.958
  P     -222.855     144.677     -66.195
  C     -220.649     144.240     -64.884
  O     -221.721     143.701     -65.624
  O     -223.160     145.906     -65.405
  O     -222.453     144.945     -67.721
  H     -222.777     144.227     -68.311
  H     -219.964     143.430     -64.619
  H     -221.017     144.699     -63.962
  H     -220.106     144.981     -65.478
  H     -224.030     142.718     -73.519
  H     -224.102     142.685     -71.773
  H     -223.886     144.204     -72.610

 3  4  5  6  7  8  9  10  11  12  22  25  29  30  31  32 0
 6-311+G(2d,p)
 ****
 33  36  37 0
 6-311+G(2d,p)
 ****
 1  2  13  14  15  16  17  18  19  20  21  23  24  26 0
 3-21G
 ****
 27  28  34  35  38  39  40  41  42  43  44  45  46  47  48 0
 3-21G
 ****


