%nproc=1
%NoSave
%Mem=1900MB
#P OB98/GEN NMR

erre ene a

0 1
  C     -501.164     516.911     584.668
  O     -500.751     517.360     585.964
  P     -499.290     518.004     586.074
  C     -500.110     520.373     586.780
  O     -499.358     519.212     587.132
  C     -500.360     521.232     588.022
  O     -501.536     520.803     588.745
  C     -499.225     521.177     589.032
  O     -498.112     521.933     588.595
  C     -499.916     521.714     590.278
  O     -499.996     523.162     590.220
  C     -501.334     521.121     590.132
  N     -502.026     519.339     594.885
  C     -501.850     520.597     594.405
  N     -501.668     520.985     593.138
  C     -501.686     519.926     592.297
  C     -501.856     518.597     592.641
  C     -502.020     518.307     594.005
  N     -502.185     517.022     594.490
  N     -501.809     517.800     591.519
  C     -501.600     518.625     590.514
  N     -501.526     519.926     590.940
  O     -499.104     518.740     584.664
  O     -498.211     517.000     586.325
  H     -500.404     523.445     591.058
  H     -498.450     518.257     584.126
  H     -501.863     521.380     595.145
  H     -501.483     518.339     589.477
  H     -502.112     521.841     590.433
  H     -499.410     521.457     591.214
  H     -498.913     520.128     589.206
  H     -500.511     522.265     587.684
  H     -501.069     520.082     586.327
  H     -502.215     516.909     595.500
  H     -502.100     516.251     593.858
  H     -499.567     520.940     586.020
  P     -496.706     521.697     589.329
  C     -495.504     521.024     587.157
  O     -495.609     521.996     588.180
  O     -496.671     520.102     589.440
  O     -496.523     522.436     590.609
  H     -496.938     519.671     588.603
  H     -494.757     521.360     586.428
  H     -496.457     520.884     586.661
  H     -495.162     520.060     587.582
  H     -502.152     516.504     584.729
  H     -500.489     516.157     584.320
  H     -501.160     517.736     583.987

 3  4  5  6  7  8  9  10  11  12  22  25  29  30  31  32 0
 6-311+G(2d,p)
 ****
 33  36  37 0
 6-311+G(2d,p)
 ****
 1  2  13  14  15  16  17  18  19  20  21  23  24  26 0
 3-21G
 ****
 27  28  34  35  38  39  40  41  42  43  44  45  46  47  48 0
 3-21G
 ****


