%nproc=1
%NoSave
%Mem=1900MB
#P OB98/GEN NMR

erre ene a

0 1
  C      -56.113    -157.823     -17.996
  O      -56.193    -157.220     -19.271
  H      -55.586    -157.143     -17.321
  H      -55.557    -158.763     -18.047
  H      -57.115    -158.002     -17.598
  P      -56.822    -158.071     -20.478
  C      -54.486    -158.612     -21.465
  O      -55.666    -159.123     -20.862
  C      -53.782    -159.711     -22.258
  O      -53.390    -160.802     -21.398
  C      -54.629    -160.361     -23.349
  O      -54.808    -159.540     -24.490
  C      -53.784    -161.591     -23.641
  O      -52.642    -161.212     -24.429
  C      -53.356    -162.009     -22.212
  N      -54.220    -163.038     -21.635
  C      -53.789    -164.364     -21.768
  O      -52.734    -164.624     -22.346
  N      -54.584    -165.372     -21.275
  C      -55.718    -165.081     -20.718
  N      -56.490    -166.120     -20.289
  C      -56.203    -163.699     -20.541
  C      -55.417    -162.737     -21.021
  O      -57.377    -157.286     -21.623
  O      -57.901    -159.022     -19.775
  H      -52.964    -161.047     -25.334
  H      -58.328    -159.562     -20.483
  H      -57.160    -163.513     -20.076
  H      -55.712    -161.696     -20.945
  H      -52.322    -162.370     -22.206
  H      -54.324    -162.363     -24.197
  H      -55.595    -160.688     -22.947
  H      -52.858    -159.281     -22.670
  H      -56.146    -167.054     -20.465
  H      -53.840    -158.223     -20.674
  H      -57.482    -166.000     -20.106
  H      -54.737    -157.798     -22.152
  P      -56.199    -159.653     -25.286
  C      -55.136    -161.123     -27.155
  O      -56.128    -161.003     -26.149
  O      -56.077    -158.493     -26.382
  O      -57.435    -159.524     -24.452
  H      -56.488    -157.666     -26.068
  H      -55.226    -162.076     -27.633
  H      -54.166    -161.036     -26.712
  H      -55.268    -160.347     -27.880

 6  7  8  9  10  11  12  13  14  15  16  26  30  31  32  33  35 0
 6-311+G(2d,p)
 ****
 37  38 0
 6-311+G(2d,p)
 ****
 1  2  3  4  5  17  18  19  20  21  22  23  24  25 0
 3-21G
 ****
 27  28  29  34  36  39  40  41  42  43  44  45  46 0
 3-21G
 ****


