%nproc=1
%NoSave
%Mem=1900MB
#P OB98/GEN NMR

erre ene a

0 1
  C      -62.135    -916.778     601.443
  O      -63.420    -916.907     600.815
  P      -64.111    -918.351     600.897
  C      -66.122    -917.565     602.379
  O      -64.963    -918.402     602.254
  C      -66.654    -917.586     603.811
  O      -65.644    -917.179     604.748
  C      -67.813    -916.634     604.057
  O      -69.060    -917.182     603.605
  C      -67.811    -916.529     605.569
  O      -68.499    -917.657     606.128
  C      -66.312    -916.598     605.899
  N      -66.295    -912.621     609.044
  C      -67.032    -913.782     609.092
  N      -67.889    -913.913     610.149
  N      -66.965    -914.726     608.203
  C      -66.049    -914.471     607.212
  C      -65.272    -913.340     607.053
  C      -65.372    -912.303     608.037
  O      -64.756    -911.225     608.031
  N      -64.450    -913.466     605.938
  C      -64.743    -914.635     605.447
  N      -65.724    -915.286     606.178
  O      -62.885    -919.342     601.192
  O      -64.845    -918.737     599.652
  H      -69.455    -917.510     606.003
  H      -63.071    -920.239     600.864
  H      -66.400    -911.903     609.773
  H      -64.286    -915.072     604.578
  H      -66.109    -917.252     606.763
  H      -68.320    -915.633     605.938
  H      -67.949    -913.268     610.905
  H      -67.633    -915.643     603.596
  H      -68.419    -914.784     610.205
  H      -66.955    -918.608     604.057
  H      -66.907    -917.918     601.691
  H      -65.863    -916.544     602.066
  P      -69.691    -916.560     602.241
  C      -69.308    -918.817     600.988
  O      -69.064    -917.421     601.033
  O      -68.961    -915.121     602.129
  O      -71.181    -916.435     602.246
  H      -69.526    -914.490     601.682
  H      -70.337    -919.060     601.244
  H      -68.623    -919.327     601.712
  H      -69.077    -919.184     599.996
  H      -61.778    -915.776     601.323
  H      -61.446    -917.459     600.989
  H      -62.223    -917.002     602.486

 3  4  5  6  7  8  9  10  11  12  23  26  30  31  33  0
 6-311+G(2d,p)
 ****
 35  36  37  38 0
 6-311+G(2d,p)
 ****
 1  2  13  14  15  16  17  18  19  20  21  22  24  25  27  28  29 0
 3-21G
 ****
 32  34  39  40  41  42  43  44  45  46  47  48  49 0
 3-21G
 ****


