%nproc=1
%NoSave
%Mem=1900MB
#P OB98/GEN NMR

erre ene a

0 1
  C     -237.530      90.798    -726.787
  O     -236.924      89.655    -727.362
  H     -238.489      90.505    -726.355
  H     -237.707      91.557    -727.553
  H     -236.894      91.206    -725.997
  P     -235.504      89.884    -728.079
  C     -233.782      89.313    -726.227
  O     -234.488      90.329    -726.918
  C     -232.481      89.867    -725.645
  O     -231.558      90.219    -726.699
  C     -232.660      91.114    -724.789
  O     -233.043      90.776    -723.467
  C     -231.267      91.725    -724.857
  O     -230.361      91.086    -723.931
  C     -230.859      91.433    -726.308
  N     -229.005      94.347    -729.992
  C     -228.426      93.301    -729.302
  N     -227.132      93.028    -729.605
  N     -229.040      92.598    -728.397
  C     -230.311      93.008    -728.175
  C     -231.005      94.015    -728.801
  C     -230.319      94.766    -729.831
  O     -230.801      95.661    -730.522
  N     -232.284      94.114    -728.316
  C     -232.350      93.195    -727.368
  N     -231.171      92.509    -727.234
  O     -235.721      91.235    -728.916
  O     -235.041      88.767    -728.951
  H     -229.510      91.559    -723.942
  H     -235.161      91.205    -729.715
  H     -228.481      94.844    -730.693
  H     -233.219      92.996    -726.762
  H     -229.787      91.235    -726.403
  H     -231.276      92.784    -724.598
  H     -226.530      93.723    -730.029
  H     -233.381      91.801    -725.244
  H     -226.691      92.280    -729.092
  H     -232.013      89.064    -725.066
  H     -233.540      88.504    -726.929
  H     -234.408      88.914    -725.426
  P     -233.741      91.914    -722.576
  C     -236.146      91.058    -723.083
  O     -235.214      92.126    -723.183
  O     -232.968      93.247    -723.012
  O     -233.676      91.686    -721.101
  H     -233.115      93.952    -722.354
  H     -237.073      91.351    -723.529
  H     -236.306      90.819    -722.052
  H     -235.761      90.199    -723.592

 6  7  8  9  10  11  12  13  14  15  26  29  33  34 0
 6-311+G(2d,p)
 ****
 36  38  39  40  41 0
 6-311+G(2d,p)
 ****
 1  2  3  4  5  16  17  18  19  20  21  22  23  24  25 0
 3-21G
 ****
 27  28  30  31  32  35  37  42  43  44  45  46  47 0
 3-21G
 ****
 48  49 0
 3-21G
 ****


