%nproc=1
%NoSave
%Mem=1900MB
#P OB98/GEN NMR

erre ene a

0 1
  C      261.588    -293.554      41.863
  O      261.800    -294.682      41.036
  H      261.466    -293.894      42.895
  H      260.676    -293.038      41.552
  H      262.440    -292.871      41.816
  P      262.330    -294.397      39.548
  C      264.735    -295.188      40.113
  O      263.908    -294.124      39.671
  C      266.204    -294.807      39.981
  O      267.044    -295.807      40.599
  C      266.692    -294.671      38.543
  O      266.387    -293.389      38.004
  C      268.191    -294.836      38.733
  O      268.752    -293.612      39.252
  C      268.253    -295.937      39.801
  N      271.337    -299.746      38.487
  C      271.642    -298.474      38.935
  N      272.953    -298.172      39.041
  N      270.742    -297.577      39.246
  C      269.472    -298.010      39.072
  C      269.041    -299.244      38.629
  C      270.048    -300.231      38.306
  O      269.830    -301.378      37.914
  N      267.676    -299.313      38.578
  C      267.279    -298.119      38.966
  N      268.326    -297.290      39.275
  O      261.717    -292.952      39.225
  O      261.920    -295.402      38.525
  H      268.322    -293.440      40.112
  H      260.940    -293.063      38.644
  H      272.067    -300.396      38.253
  H      266.244    -297.809      39.048
  H      269.108    -295.814      40.474
  H      268.713    -295.050      37.800
  H      273.698    -298.808      38.797
  H      266.311    -295.478      37.906
  H      273.200    -297.247      39.369
  H      266.360    -293.868      40.530
  H      264.533    -296.076      39.505
  H      264.501    -295.409      41.162
  P      266.667    -293.133      36.447
  C      264.487    -294.216      35.548
  O      265.905    -294.291      35.636
  O      268.212    -293.528      36.302
  O      266.415    -291.740      35.974
  H      268.746    -292.727      36.118
  H      264.120    -295.047      34.983
  H      264.207    -293.304      35.063
  H      264.067    -294.240      36.532

 6  7  8  9  10  11  12  13  14  15  26  29  33  34 0
 6-311+G(2d,p)
 ****
 36  38  39  40  41 0
 6-311+G(2d,p)
 ****
 1  2  3  4  5  16  17  18  19  20  21  22  23  24  25 0
 3-21G
 ****
 27  28  30  31  32  35  37  42  43  44  45  46  47 0
 3-21G
 ****
 48  49 0
 3-21G
 ****


