%nproc=1
%NoSave
%Mem=1900MB
#P OB98/GEN NMR

erre ene a

0 1
  C      160.693     -49.913     125.477
  O      161.687     -50.190     126.442
  H      160.861     -50.548     124.604
  H      160.770     -48.867     125.168
  H      159.694     -50.112     125.874
  P      161.421     -49.680     127.938
  C      161.181     -52.060     128.945
  O      160.551     -50.819     128.664
  C      160.147     -53.093     129.395
  O      159.153     -53.247     128.337
  C      160.735     -54.483     129.689
  O      160.031     -55.057     130.798
  C      160.377     -55.270     128.442
  O      160.339     -56.673     128.679
  C      159.020     -54.661     128.104
  N      156.119     -57.666     125.323
  C      156.157     -57.468     126.688
  N      155.338     -58.231     127.443
  N      156.938     -56.595     127.268
  C      157.693     -55.885     126.396
  C      157.751     -55.988     125.029
  C      156.893     -56.970     124.397
  O      156.830     -57.207     123.196
  N      158.691     -55.131     124.511
  C      159.211     -54.529     125.567
  N      158.638     -54.954     126.733
  O      160.373     -48.488     127.720
  O      162.631     -49.228     128.684
  H      159.764     -56.837     129.454
  H      160.847     -47.637     127.675
  H      155.512     -58.362     124.927
  H      160.009     -53.801     125.542
  H      158.216     -55.041     128.747
  H      161.108     -55.071     127.650
  H      154.686     -58.901     127.066
  H      161.810     -54.477     129.897
  H      155.326     -58.067     128.443
  H      159.620     -52.702     130.274
  H      161.914     -51.918     129.745
  H      161.703     -52.410     128.048
  P      160.783     -55.129     132.212
  C      159.267     -53.371     133.388
  O      160.576     -53.733     132.974
  O      162.330     -55.096     131.800
  O      160.456     -56.347     133.010
  H      162.849     -55.642     132.420
  H      159.298     -52.420     133.877
  H      158.890     -54.109     134.065
  H      158.626     -53.311     132.533

 6  7  8  9  10  11  12  13  14  15  26  29  33  34 0
 6-311+G(2d,p)
 ****
 36  38  39  40  41 0
 6-311+G(2d,p)
 ****
 1  2  3  4  5  16  17  18  19  20  21  22  23  24  25 0
 3-21G
 ****
 27  28  30  31  32  35  37  42  43  44  45  46  47 0
 3-21G
 ****
 48  49 0
 3-21G
 ****


