%nproc=1
%NoSave
%Mem=1900MB
#P OB98/GEN NMR

erre ene a

0 1
  C     -158.665       0.611     -78.998
  O     -158.140       1.762     -78.368
  H     -159.155      -0.026     -78.259
  H     -159.405       0.924     -79.740
  H     -157.872       0.054     -79.505
  P     -156.909       1.538     -77.365
  C     -156.155       4.025     -77.317
  O     -156.712       2.935     -76.596
  C     -157.226       4.696     -78.179
  O     -158.386       4.976     -77.351
  C     -156.768       6.019     -78.801
  O     -157.302       6.117     -80.123
  C     -157.405       7.069     -77.907
  O     -157.592       8.309     -78.580
  C     -158.700       6.375     -77.499
  N     -161.159      10.326     -75.402
  C     -160.858      10.028     -76.683
  N     -160.204       8.948     -77.160
  C     -159.894       8.104     -76.160
  C     -160.133       8.272     -74.807
  C     -160.792       9.455     -74.432
  N     -161.070       9.786     -73.124
  N     -159.630       7.203     -74.090
  C     -159.099       6.405     -74.995
  N     -159.231       6.910     -76.259
  O     -155.658       1.481     -78.366
  O     -156.988       0.327     -76.499
  H     -158.154       8.150     -79.366
  H     -155.606       0.594     -78.771
  H     -161.180      10.755     -77.425
  H     -158.606       5.465     -74.790
  H     -159.488       6.475     -78.259
  H     -156.765       7.247     -77.035
  H     -155.682       6.116     -78.839
  H     -157.552       3.986     -78.949
  H     -155.350       3.653     -77.958
  H     -161.495      10.680     -72.942
  H     -160.749       9.179     -72.384
  H     -155.743       4.752     -76.609
  P     -156.491       5.365     -81.287
  C     -158.669       4.734     -82.542
  O     -157.394       5.355     -82.615
  O     -156.494       3.837     -80.812
  O     -155.099       5.876     -81.472
  H     -155.590       3.474     -80.852
  H     -159.154       4.803     -83.493
  H     -159.264       5.227     -81.802
  H     -158.550       3.704     -82.276

 6  7  8  9  10  11  12  13  14  15  25  28  32  33  34  35 0
 6-311+G(2d,p)
 ****
 36  39  40 0
 6-311+G(2d,p)
 ****
 1  2  3  4  5  16  17  18  19  20  21  22  23  24 0
 3-21G
 ****
 26  27  29  30  31  37  38  41  42  43  44  45  46  47 0
 3-21G
 ****
 48 0
 3-21G
 ****


