%nproc=1
%NoSave
%Mem=1900MB
#P OB98/GEN NMR

erre ene a

0 1
  C     -257.116     166.374     104.911
  O     -258.527     166.536     104.956
  P     -259.382     166.102     103.671
  C     -260.594     167.349     101.748
  O     -259.690     167.440     102.837
  C     -260.959     168.734     101.215
  O     -261.773     169.421     102.203
  C     -259.758     169.635     100.909
  O     -260.119     170.462      99.797
  C     -259.652     170.499     102.154
  O     -258.933     171.703     101.917
  C     -261.132     170.685     102.480
  N     -264.439     172.698     105.824
  C     -264.544     172.432     104.505
  N     -263.621     171.894     103.682
  C     -262.487     171.626     104.351
  C     -262.219     171.874     105.689
  C     -263.263     172.435     106.446
  N     -263.164     172.698     107.791
  N     -260.934     171.488     106.006
  C     -260.432     171.017     104.884
  N     -261.342     171.058     103.863
  O     -260.802     165.723     104.305
  O     -258.817     164.968     102.886
  H     -259.480     172.282     101.351
  H     -260.952     164.760     104.232
  H     -265.500     172.677     104.051
  H     -259.427     170.640     104.756
  H     -261.603     171.449     101.849
  H     -259.136     169.943     102.946
  H     -258.834     169.090     100.696
  H     -261.580     168.607     100.319
  H     -261.509     166.854     102.090
  H     -263.996     172.967     108.291
  H     -262.366     172.332     108.300
  H     -260.149     166.743     100.952
  P     -258.937     171.278      99.085
  C     -258.119     173.740      99.139
  O     -258.948     172.750      99.718
  O     -259.484     171.499      97.596
  O     -257.620     170.576      99.089
  H     -258.739     171.579      96.974
  H     -258.614     174.710      99.229
  H     -257.919     173.539      98.080
  H     -257.171     173.774      99.682
  H     -256.689     166.705     105.835
  H     -256.716     166.953     104.105
  H     -256.880     165.341     104.759

 3  4  5  6  7  8  9  10  11  12  22  25  29  30  31  32 0
 6-311+G(2d,p)
 ****
 33  36  37 0
 6-311+G(2d,p)
 ****
 1  2  13  14  15  16  17  18  19  20  21  23  24  26 0
 3-21G
 ****
 27  28  34  35  38  39  40  41  42  43  44  45  46  47  48 0
 3-21G
 ****


