%nproc=1
%NoSave
%Mem=1900MB
#P OB98/GEN NMR

erre ene a

0 1
  C       27.736     238.430     -49.729
  O       27.222     237.276     -49.096
  H       28.354     238.148     -50.585
  H       26.900     239.039     -50.085
  H       28.327     239.018     -49.021
  P       28.294     236.224     -48.530
  C       29.917     234.538     -49.669
  O       28.811     235.418     -49.819
  C       29.952     233.569     -50.846
  O       29.940     234.300     -52.093
  C       31.204     232.698     -50.888
  O       31.112     231.572     -50.033
  C       31.210     232.284     -52.348
  O       30.231     231.253     -52.566
  C       30.778     233.585     -53.041
  N       34.221     234.591     -56.694
  C       33.199     233.710     -56.637
  N       32.315     233.519     -55.637
  C       32.556     234.361     -54.620
  C       33.557     235.317     -54.539
  C       34.424     235.415     -55.640
  N       35.487     236.290     -55.689
  N       33.500     235.976     -53.326
  C       32.473     235.440     -52.698
  N       31.890     234.436     -53.426
  O       27.398     235.141     -47.764
  O       29.380     236.792     -47.680
  H       29.371     231.609     -52.269
  H       27.957     234.579     -47.195
  H       33.078     233.073     -57.508
  H       32.120     235.733     -51.718
  H       30.181     233.404     -53.943
  H       32.176     231.883     -52.670
  H       32.107     233.284     -50.679
  H       29.045     232.953     -50.812
  H       29.805     233.979     -48.734
  H       36.135     236.182     -56.453
  H       35.733     236.801     -54.856
  H       30.842     235.121     -49.633
  P       32.471     231.042     -49.358
  C       34.119     229.118     -49.935
  O       33.136     230.030     -50.412
  O       31.940     230.074     -48.201
  O       33.364     232.118     -48.833
  H       32.547     230.082     -47.436
  H       34.468     228.513     -50.746
  H       33.689     228.491     -49.182
  H       34.940     229.664     -49.518

 6  7  8  9  10  11  12  13  14  15  25  28  32  33  34  35 0
 6-311+G(2d,p)
 ****
 36  39  40 0
 6-311+G(2d,p)
 ****
 1  2  3  4  5  16  17  18  19  20  21  22  23  24 0
 3-21G
 ****
 26  27  29  30  31  37  38  41  42  43  44  45  46  47 0
 3-21G
 ****
 48 0
 3-21G
 ****


