%nproc=1
%NoSave
%Mem=1900MB
#P OB98/GEN NMR

erre ene a

0 1
  C       45.585     -81.612     125.221
  O       46.100     -82.480     124.228
  P       46.041     -84.062     124.488
  C       48.663     -83.986     124.353
  O       47.458     -84.653     124.026
  C       49.787     -84.426     123.409
  O       50.954     -83.590     123.644
  C       50.226     -85.885     123.580
  O       50.579     -86.379     122.282
  C       51.460     -85.764     124.458
  O       52.316     -86.892     124.358
  C       52.065     -84.463     123.920
  N       52.998     -83.828     124.850
  C       54.343     -83.786     124.497
  O       54.794     -84.270     123.460
  N       55.177     -83.183     125.403
  C       54.820     -82.693     126.625
  O       55.613     -82.180     127.404
  C       53.395     -82.808     126.964
  C       52.564     -83.351     126.073
  O       45.031     -84.526     123.340
  O       45.631     -84.427     125.874
  H       45.127     -84.014     122.519
  H       53.078     -86.745     124.949
  H       56.152     -83.108     125.150
  H       53.075     -82.443     127.932
  H       51.509     -83.448     126.302
  H       52.571     -84.651     122.965
  H       51.154     -85.661     125.505
  H       49.442     -86.511     124.016
  H       49.460     -84.244     122.378
  H       48.946     -84.230     125.380
  H       48.505     -82.904     124.294
  P       49.855     -87.717     121.757
  C       51.854     -89.377     122.068
  O       50.995     -88.686     121.190
  O       49.165     -87.158     120.420
  O       48.872     -88.316     122.708
  H       49.774     -86.645     119.866
  H       52.312     -90.211     121.530
  H       51.311     -89.773     122.929
  H       52.645     -88.705     122.412
  H       45.697     -80.597     124.901
  H       46.121     -81.758     126.135
  H       44.548     -81.824     125.377

 3  4  5  6  7  8  9  10  11  12  13  24  28  29  30  31  32 0
 6-311+G(2d,p)
 ****
 33  34 0
 6-311+G(2d,p)
 ****
 1  2  14  15  16  17  18  19  20  21  22  23  25  26  27 0
 3-21G
 ****
 35  36  37  38  39  40  41  42  43  44  45 0
 3-21G
 ****


