%nproc=1
%NoSave
%Mem=1900MB
#P OB98/GEN NMR

erre ene a

0 1
  C     -121.005      61.304      16.713
  O     -120.968      61.780      18.043
  H     -119.980      61.137      16.372
  H     -121.480      62.039      16.060
  H     -121.553      60.358      16.668
  P     -122.378      62.196      18.694
  C     -121.193      64.472      19.163
  O     -122.344      63.803      18.669
  C     -120.874      65.679      18.285
  O     -120.867      65.306      16.890
  C     -121.880      66.823      18.391
  O     -121.719      67.608      19.559
  C     -121.522      67.598      17.134
  O     -120.291      68.315      17.343
  C     -121.337      66.447      16.122
  N     -122.569      66.113      15.402
  C     -122.844      66.860      14.250
  O     -122.081      67.749      13.880
  N     -124.007      66.605      13.561
  C     -124.811      65.671      13.969
  N     -125.946      65.467      13.246
  C     -124.553      64.853      15.167
  C     -123.429      65.122      15.827
  O     -122.181      61.865      20.248
  O     -123.590      61.582      18.078
  H     -120.076      68.753      16.500
  H     -122.943      62.222      20.767
  H     -125.261      64.095      15.476
  H     -123.171      64.560      16.718
  H     -120.559      66.692      15.388
  H     -122.274      68.336      16.854
  H     -122.910      66.461      18.301
  H     -119.861      66.016      18.537
  H     -126.123      66.084      12.464
  H     -120.355      63.767      19.153
  H     -126.701      64.873      13.565
  H     -121.366      64.807      20.191
  P     -122.863      67.499      20.680
  C     -123.353      70.040      20.385
  O     -123.875      68.716      20.432
  O     -122.098      67.919      22.020
  O     -123.503      66.151      20.799
  H     -122.447      67.427      22.788
  H     -124.151      70.732      20.213
  H     -122.640      70.114      19.591
  H     -122.876      70.269      21.315

 6  7  8  9  10  11  12  13  14  15  16  26  30  31  32  33  35 0
 6-311+G(2d,p)
 ****
 37  38 0
 6-311+G(2d,p)
 ****
 1  2  3  4  5  17  18  19  20  21  22  23  24  25 0
 3-21G
 ****
 27  28  29  34  36  39  40  41  42  43  44  45  46 0
 3-21G
 ****


