%nproc=1
%NoSave
%Mem=1900MB
#P OB98/GEN NMR

erre ene a

0 1
  C     -390.503    -182.528    1022.145
  O     -390.070    -181.175    1022.396
  P     -388.530    -180.740    1022.263
  C     -389.486    -178.773    1020.881
  O     -388.475    -179.193    1021.791
  C     -389.277    -177.316    1020.436
  O     -389.993    -176.418    1021.318
  C     -387.837    -176.852    1020.443
  O     -387.153    -177.332    1019.291
  C     -387.995    -175.334    1020.495
  O     -388.283    -174.805    1019.198
  C     -389.220    -175.193    1021.418
  N     -388.056    -171.549    1024.822
  C     -388.384    -171.496    1023.515
  N     -388.686    -172.512    1022.674
  C     -388.630    -173.694    1023.319
  C     -388.307    -173.901    1024.649
  C     -387.992    -172.771    1025.433
  N     -387.638    -172.825    1026.748
  N     -388.315    -175.254    1024.949
  C     -388.689    -175.846    1023.823
  N     -388.891    -174.933    1022.815
  O     -387.698    -181.666    1021.432
  O     -387.987    -180.682    1023.764
  H     -387.599    -175.114    1018.587
  H     -387.024    -180.868    1023.770
  H     -388.418    -170.501    1023.081
  H     -388.815    -176.906    1023.688
  H     -389.885    -174.380    1021.092
  H     -387.105    -174.824    1020.868
  H     -387.330    -177.199    1021.356
  H     -389.723    -177.213    1019.437
  H     -390.462    -178.875    1021.368
  H     -387.410    -171.971    1027.228
  H     -387.549    -173.743    1027.185
  H     -389.473    -179.425    1020.011
  P     -386.197    -178.619    1019.386
  C     -385.742    -178.482    1016.865
  O     -385.172    -178.544    1018.158
  O     -386.910    -179.937    1019.535
  O     -385.261    -178.324    1020.660
  H     -385.023    -179.161    1021.085
  H     -386.029    -179.489    1016.552
  H     -384.975    -178.099    1016.162
  H     -386.602    -177.817    1016.838
  H     -391.561    -182.597    1022.290
  H     -390.006    -183.193    1022.821
  H     -390.263    -182.798    1021.138

 3  4  5  6  7  8  9  10  11  12  22  25  29  30  31  32 0
 6-311+G(2d,p)
 ****
 33  36  37 0
 6-311+G(2d,p)
 ****
 1  2  13  14  15  16  17  18  19  20  21  23  24  26 0
 3-21G
 ****
 27  28  34  35  38  39  40  41  42  43  44  45  46  47  48 0
 3-21G
 ****


