%nproc=1
%NoSave
%Mem=1900MB
#P OB98/GEN NMR

erre ene a

0 1
  C     1175.822     789.186    -485.738
  O     1176.804     790.001    -485.126
  P     1176.871     790.182    -483.533
  C     1175.547     791.664    -481.883
  O     1175.542     790.949    -483.133
  C     1174.240     792.411    -481.647
  O     1174.099     793.420    -482.717
  C     1172.965     791.557    -481.642
  O     1172.088     792.195    -480.708
  C     1172.485     791.718    -483.057
  O     1171.078     791.387    -483.184
  C     1172.793     793.179    -483.346
  N     1172.836     793.476    -484.774
  C     1171.628     793.906    -485.341
  O     1170.605     793.984    -484.668
  N     1171.611     794.229    -486.698
  C     1172.670     794.036    -487.400
  N     1172.612     794.395    -488.711
  C     1173.909     793.472    -486.869
  C     1173.946     793.219    -485.547
  O     1178.142     790.770    -483.025
  O     1176.589     788.700    -482.980
  H     1170.980     790.416    -483.137
  H     1177.408     788.140    -483.065
  H     1174.771     793.279    -487.520
  H     1174.808     792.799    -485.048
  H     1172.081     793.868    -482.859
  H     1173.026     791.052    -483.725
  H     1173.171     790.530    -481.344
  H     1174.340     792.985    -480.710
  H     1171.728     794.806    -489.029
  H     1176.393     792.353    -481.885
  H     1173.401     794.354    -489.353
  H     1175.738     790.924    -481.062
  P     1170.964     791.346    -479.928
  C     1168.475     790.894    -480.227
  O     1169.640     791.390    -480.843
  O     1170.756     791.738    -478.501
  O     1171.450     789.797    -480.064
  H     1170.957     789.258    -479.412
  H     1167.579     791.228    -480.852
  H     1168.339     791.278    -479.225
  H     1168.466     789.796    -480.194
  H     1175.955     789.204    -486.800
  H     1174.848     789.557    -485.494
  H     1175.920     788.181    -485.383

 3  4  5  6  7  8  9  10  11  12  13  23  27  28  29  30  32 0
 6-311+G(2d,p)
 ****
 34  35 0
 6-311+G(2d,p)
 ****
 1  2  14  15  16  17  18  19  20  21  22  24  25  26 0
 3-21G
 ****
 31  33  36  37  38  39  40  41  42  43  44  45  46 0
 3-21G
 ****


