%nproc=1
%NoSave
%Mem=1900MB
#P OB98/GEN NMR

erre ene a

0 1
  C       70.965     246.625    -297.449
  O       70.992     245.560    -296.518
  H       71.514     247.485    -297.053
  H       71.446     246.297    -298.374
  H       69.931     246.910    -297.670
  P       70.304     245.834    -295.095
  C       72.537     246.335    -293.868
  O       71.409     245.478    -293.987
  C       73.704     245.582    -293.234
  O       73.439     245.345    -291.839
  C       73.980     244.207    -293.839
  O       74.712     244.304    -295.051
  C       74.807     243.573    -292.733
  O       76.161     244.055    -292.805
  C       74.120     244.112    -291.471
  N       73.504     239.892    -288.642
  C       74.603     240.609    -288.968
  N       74.683     241.731    -289.706
  C       73.464     242.126    -290.111
  C       72.251     241.514    -289.843
  C       72.297     240.338    -289.072
  N       71.169     239.577    -288.804
  N       71.214     242.200    -290.444
  C       71.794     243.193    -291.081
  N       73.152     243.194    -290.901
  O       69.242     244.638    -294.977
  O       69.652     247.168    -294.951
  H       76.699     243.465    -292.242
  H       68.364     244.959    -295.256
  H       75.543     240.221    -288.586
  H       71.278     243.930    -291.678
  H       74.842     244.365    -290.681
  H       74.847     242.483    -292.799
  H       73.056     243.629    -293.969
  H       74.593     246.224    -293.302
  H       72.277     247.191    -293.241
  H       71.367     238.586    -288.677
  H       70.359     239.813    -289.364
  H       72.811     246.691    -294.865
  P       74.526     243.135    -296.134
  C       77.006     242.435    -296.370
  O       75.888     243.072    -296.976
  O       73.474     243.764    -297.154
  O       74.040     241.830    -295.585
  H       72.695     243.175    -297.241
  H       77.840     242.466    -297.039
  H       76.761     241.416    -296.152
  H       77.258     242.943    -295.463

 6  7  8  9  10  11  12  13  14  15  25  28  32  33  34  35 0
 6-311+G(2d,p)
 ****
 36  39  40 0
 6-311+G(2d,p)
 ****
 1  2  3  4  5  16  17  18  19  20  21  22  23  24 0
 3-21G
 ****
 26  27  29  30  31  37  38  41  42  43  44  45  46  47  48 0
 3-21G
 ****


