%nproc=1
%NoSave
%Mem=1900MB
#P OB98/GEN NMR

erre ene a

0 1
  C       64.428      -4.302      27.395
  O       64.624      -3.915      26.047
  P       65.906      -3.023      25.685
  C       65.224      -0.848      26.991
  O       65.429      -1.493      25.748
  C       65.023       0.656      26.783
  O       64.664       1.263      28.055
  C       66.259       1.395      26.255
  O       65.792       2.435      25.385
  C       66.862       1.987      27.516
  O       67.708       3.094      27.252
  C       65.594       2.335      28.303
  N       65.825       2.492      29.739
  C       66.451       3.655      30.174
  O       66.840       4.546      29.422
  N       66.648       3.753      31.527
  C       66.349       2.800      32.456
  O       66.564       2.934      33.654
  C       65.734       1.572      31.932
  C       65.495       1.482      30.623
  O       66.059      -3.320      24.122
  O       67.108      -3.338      26.507
  H       65.204      -3.428      23.670
  H       68.028       3.440      28.105
  H       67.067       4.605      31.869
  H       65.496       0.786      32.637
  H       65.044       0.586      30.214
  H       65.143       3.251      27.902
  H       67.454       1.221      28.030
  H       66.942       0.736      25.713
  H       64.173       0.798      26.104
  H       66.097      -1.005      27.630
  H       64.357      -1.292      27.491
  P       65.907       2.204      23.797
  C       68.341       3.157      23.678
  O       67.003       3.230      23.242
  O       64.525       2.863      23.315
  O       66.046       0.778      23.377
  H       64.369       3.738      23.702
  H       68.974       3.688      22.962
  H       68.684       2.121      23.744
  H       68.436       3.637      24.655
  H       63.536      -4.888      27.472
  H       64.334      -3.429      28.007
  H       65.265      -4.881      27.725

 3  4  5  6  7  8  9  10  11  12  13  24  28  29  30  31  32 0
 6-311+G(2d,p)
 ****
 33  34 0
 6-311+G(2d,p)
 ****
 1  2  14  15  16  17  18  19  20  21  22  23  25  26  27 0
 3-21G
 ****
 35  36  37  38  39  40  41  42  43  44  45 0
 3-21G
 ****


