%nproc=1
%NoSave
%Mem=1900MB
#P OB98/GEN NMR

erre ene a

0 1
  C     -109.303     -48.229      30.810
  O     -110.597     -48.275      31.377
  H     -109.361     -47.718      29.846
  H     -108.923     -49.242      30.651
  H     -108.626     -47.677      31.466
  P     -110.747     -49.092      32.753
  C     -112.780     -47.747      33.681
  O     -112.310     -48.955      33.102
  C     -114.284     -47.617      33.466
  O     -114.585     -47.440      32.063
  C     -115.094     -48.835      33.900
  O     -115.283     -48.915      35.302
  C     -116.395     -48.557      33.170
  O     -117.115     -47.511      33.847
  C     -115.866     -48.076      31.802
  N     -115.712     -49.165      30.833
  C     -116.890     -49.701      30.298
  O     -117.988     -49.267      30.638
  N     -116.796     -50.745      29.410
  C     -115.632     -51.202      29.068
  N     -115.603     -52.239      28.188
  C     -114.367     -50.661      29.596
  C     -114.479     -49.656      30.462
  O     -110.062     -48.129      33.832
  O     -110.223     -50.487      32.748
  H     -117.898     -47.313      33.300
  H     -110.229     -48.471      34.744
  H     -113.420     -51.083      29.291
  H     -113.591     -49.205      30.892
  H     -116.527     -47.316      31.369
  H     -117.059     -49.420      33.124
  H     -114.662     -49.764      33.511
  H     -114.618     -46.712      33.988
  H     -116.489     -52.628      27.890
  H     -112.258     -46.911      33.203
  H     -114.761     -52.758      27.977
  H     -112.565     -47.735      34.753
  P     -115.205     -50.372      35.974
  C     -114.582     -49.857      38.449
  O     -115.601     -50.195      37.516
  O     -113.635     -50.666      36.026
  O     -115.953     -51.442      35.241
  H     -113.454     -51.617      35.895
  H     -115.007     -49.777      39.428
  H     -114.142     -48.921      38.173
  H     -113.831     -50.619      38.448

 6  7  8  9  10  11  12  13  14  15  16  26  30  31  32  33  35 0
 6-311+G(2d,p)
 ****
 37  38 0
 6-311+G(2d,p)
 ****
 1  2  3  4  5  17  18  19  20  21  22  23  24  25 0
 3-21G
 ****
 27  28  29  34  36  39  40  41  42  43  44  45  46 0
 3-21G
 ****


