%nproc=1
%NoSave
%Mem=1900MB
#P OB98/GEN NMR

erre ene a

0 1
  C     -125.681     469.365    1098.451
  O     -126.542     469.662    1099.534
  H     -126.287     469.118    1097.578
  H     -125.046     468.514    1098.695
  H     -125.059     470.241    1098.220
  P     -125.858     469.957    1100.952
  C     -125.011     467.525    1101.328
  O     -125.867     468.577    1101.766
  C     -124.964     466.429    1102.389
  O     -124.260     466.911    1103.555
  C     -126.333     465.996    1102.902
  O     -126.991     465.114    1102.008
  C     -125.961     465.334    1104.212
  O     -125.565     463.962    1104.016
  C     -124.771     466.186    1104.698
  N     -125.159     467.081    1105.781
  C     -125.579     466.472    1106.957
  O     -125.615     465.243    1107.098
  N     -125.979     467.300    1107.964
  C     -126.057     468.656    1107.896
  O     -126.488     469.345    1108.812
  C     -125.625     469.259    1106.620
  C     -125.200     468.462    1105.635
  O     -126.947     470.856    1101.706
  O     -124.531     470.631    1100.879
  H     -126.641     471.783    1101.736
  H     -124.836     463.983    1103.368
  H     -126.285     466.865    1108.823
  H     -125.681     470.342    1106.529
  H     -124.890     468.879    1104.686
  H     -123.958     465.544    1105.057
  H     -126.795     465.332    1104.908
  H     -126.956     466.880    1103.111
  H     -124.418     465.569    1101.981
  H     -124.001     467.913    1101.173
  H     -125.384     467.132    1100.378
  P     -128.595     465.206    1101.908
  C     -128.958     464.398    1104.387
  O     -129.166     464.183    1103.000
  O     -128.835     464.490    1100.496
  O     -129.102     466.603    1101.987
  H     -128.131     463.841    1100.297
  H     -129.415     463.607    1104.943
  H     -129.394     465.333    1104.672
  H     -127.908     464.417    1104.591

 6  7  8  9  10  11  12  13  14  15  16  27  31  32  33  34  35 0
 6-311+G(2d,p)
 ****
 36  37 0
 6-311+G(2d,p)
 ****
 1  2  3  4  5  17  18  19  20  21  22  23  24  25 0
 3-21G
 ****
 26  28  29  30  38  39  40  41  42  43  44  45 0
 3-21G
 ****


