%nproc=1
%NoSave
%Mem=1900MB
#P OB98/GEN NMR

erre ene a

0 1
  C     -199.528     -43.614     118.618
  O     -199.764     -42.283     118.188
  P     -199.627     -41.100     119.260
  C     -200.892     -40.378     121.415
  O     -200.669     -41.390     120.445
  C     -201.686     -40.940     122.597
  O     -200.895     -41.966     123.268
  C     -202.063     -39.889     123.652
  O     -203.339     -40.262     124.197
  C     -200.986     -40.082     124.704
  O     -201.344     -39.552     125.973
  C     -200.839     -41.605     124.664
  N     -199.603     -42.073     125.292
  C     -199.596     -42.185     126.680
  O     -200.556     -41.911     127.396
  N     -198.405     -42.564     127.242
  C     -197.227     -42.754     126.577
  O     -196.169     -42.980     127.153
  C     -197.296     -42.623     125.112
  C     -198.459     -42.295     124.548
  O     -200.259     -39.841     118.497
  O     -198.231     -40.833     119.718
  H     -201.684     -38.652     125.826
  H     -199.553     -39.273     118.135
  H     -198.384     -42.662     128.243
  H     -196.384     -42.786     124.552
  H     -198.536     -42.171     123.471
  H     -201.700     -42.082     125.153
  H     -200.067     -39.581     124.381
  H     -202.101     -38.867     123.261
  H     -202.590     -41.431     122.207
  H     -201.454     -39.563     120.960
  H     -199.930     -39.977     121.756
  P     -204.335     -39.085     124.652
  C     -204.221     -37.190     126.447
  O     -203.642     -38.351     125.895
  O     -205.520     -39.937     125.316
  O     -204.784     -38.210     123.526
  H     -205.194     -40.661     125.875
  H     -205.315     -37.221     126.400
  H     -203.864     -36.313     125.903
  H     -203.917     -37.104     127.494
  H     -199.657     -44.283     117.793
  H     -200.220     -43.866     119.394
  H     -198.528     -43.696     118.991

 3  4  5  6  7  8  9  10  11  12  13  23  28  29  30  31  32 0
 6-311+G(2d,p)
 ****
 33  34 0
 6-311+G(2d,p)
 ****
 1  2  14  15  16  17  18  19  20  21  22  24  25  26 0
 3-21G
 ****
 27  35  36  37  38  39  40  41  42  43  44  45 0
 3-21G
 ****


