%nproc=1
%NoSave
%Mem=1900MB
#P OB98/GEN NMR

erre ene a

0 1
  C       31.159     -70.184      -2.355
  O       30.972     -69.995      -3.763
  P       30.861     -68.491      -4.312
  C       29.210     -66.491      -4.081
  O       29.489     -67.851      -3.784
  C       27.706     -66.211      -3.973
  O       26.970     -66.842      -5.042
  C       27.076     -66.732      -2.691
  O       27.282     -65.832      -1.606
  C       25.605     -66.768      -3.075
  O       25.040     -65.444      -2.983
  C       25.665     -67.216      -4.543
  N       22.288     -71.073      -4.452
  C       22.159     -69.753      -4.185
  N       23.109     -68.793      -4.216
  C       24.294     -69.307      -4.573
  C       24.580     -70.634      -4.873
  C       23.515     -71.542      -4.800
  N       23.651     -72.883      -5.075
  N       25.917     -70.785      -5.187
  C       26.424     -69.574      -5.098
  N       25.484     -68.651      -4.722
  O       30.590     -68.699      -5.877
  O       32.086     -67.666      -4.074
  H       25.573     -64.867      -3.562
  H       31.014     -67.983      -6.385
  H       21.157     -69.421      -3.920
  H       27.455     -69.317      -5.295
  H       24.910     -66.711      -5.162
  H       25.013     -67.414      -2.417
  H       27.434     -67.747      -2.461
  H       27.556     -65.126      -4.044
  H       29.564     -66.246      -5.086
  H       22.829     -73.467      -5.029
  H       24.554     -73.230      -5.357
  H       29.776     -65.852      -3.392
  P       28.249     -66.321      -0.423
  C       27.917     -68.144       1.398
  O       27.320     -67.161       0.576
  O       28.554     -64.965       0.369
  O       29.499     -66.996      -0.885
  H       29.439     -65.008       0.783
  H       27.228     -68.394       2.209
  H       28.854     -67.782       1.836
  H       28.114     -69.046       0.814
  H       31.215     -71.231      -2.140
  H       30.335     -69.754      -1.825
  H       32.067     -69.708      -2.049

 3  4  5  6  7  8  9  10  11  12  22  25  29  30  31  32 0
 6-311+G(2d,p)
 ****
 33  36  37 0
 6-311+G(2d,p)
 ****
 1  2  13  14  15  16  17  18  19  20  21  23  24  26 0
 3-21G
 ****
 27  28  34  35  38  39  40  41  42  43  44  45  46  47  48 0
 3-21G
 ****


