%nproc=1
%NoSave
%Mem=1900MB
#P OB98/GEN NMR

erre ene a

0 1
  C      517.323     452.550      25.254
  O      516.916     453.907      25.257
  H      517.722     452.304      26.240
  H      518.107     452.391      24.505
  H      516.466     451.903      25.041
  P      516.401     454.506      23.854
  C      514.966     456.376      24.974
  O      516.107     456.052      24.192
  C      515.369     457.270      26.141
  O      516.185     456.533      27.086
  C      516.209     458.487      25.746
  O      515.449     459.539      25.186
  C      516.773     458.863      27.108
  O      515.751     459.497      27.894
  C      517.133     457.472      27.673
  N      518.514     457.066      27.365
  C      519.039     456.011      28.118
  O      518.372     455.463      28.989
  N      520.344     455.622      27.891
  C      521.048     456.213      26.969
  N      522.330     455.780      26.794
  C      520.527     457.322      26.146
  C      519.272     457.694      26.389
  O      514.933     453.893      23.709
  O      517.292     454.274      22.677
  H      514.960     458.927      27.842
  H      514.463     454.319      22.945
  H      521.153     457.797      25.401
  H      518.818     458.496      25.824
  H      516.997     457.438      28.766
  H      517.612     459.561      27.051
  H      517.039     458.209      25.084
  H      514.453     457.579      26.669
  H      522.675     455.062      27.415
  H      514.521     455.442      25.348
  H      522.995     456.278      26.214
  H      514.225     456.898      24.356
  P      516.250     460.823      24.641
  C      514.604     461.935      22.952
  O      515.155     461.934      24.265
  O      516.786     460.333      23.216
  O      517.355     461.294      25.526
  H      517.662     460.728      23.020
  H      513.895     462.731      22.863
  H      514.116     461.001      22.769
  H      515.387     462.074      22.237

 6  7  8  9  10  11  12  13  14  15  16  26  30  31  32  33  35 0
 6-311+G(2d,p)
 ****
 37  38 0
 6-311+G(2d,p)
 ****
 1  2  3  4  5  17  18  19  20  21  22  23  24  25 0
 3-21G
 ****
 27  28  29  34  36  39  40  41  42  43  44  45  46 0
 3-21G
 ****


