%nproc=1
%NoSave
%Mem=1900MB
#P OB98/GEN NMR

erre ene a

0 1
  C     -599.775     343.416    -853.652
  O     -599.196     344.723    -853.669
  P     -600.142     345.954    -854.120
  C     -598.720     347.841    -855.237
  O     -599.278     347.311    -854.044
  C     -597.889     349.079    -854.940
  O     -598.654     350.098    -854.233
  C     -596.667     348.814    -854.050
  O     -595.586     348.305    -854.810
  C     -596.368     350.211    -853.547
  O     -595.648     350.948    -854.544
  C     -597.761     350.816    -853.352
  N     -597.213     352.479    -848.530
  C     -596.543     352.760    -849.687
  N     -596.744     352.260    -850.915
  C     -597.769     351.412    -850.922
  C     -598.545     351.021    -849.832
  C     -598.232     351.595    -848.602
  N     -598.952     351.315    -847.445
  N     -599.502     350.109    -850.224
  C     -599.313     349.953    -851.534
  N     -598.269     350.704    -851.986
  O     -601.159     346.086    -852.875
  O     -600.869     345.732    -855.398
  H     -595.569     351.870    -854.238
  H     -602.029     346.362    -853.205
  H     -595.718     353.499    -849.582
  H     -599.899     349.306    -852.171
  H     -597.802     351.871    -853.639
  H     -595.749     350.215    -852.649
  H     -596.936     348.153    -853.218
  H     -597.557     349.510    -855.908
  H     -599.523     348.082    -855.949
  H     -598.662     351.801    -846.587
  H     -599.715     350.667    -847.488
  H     -598.111     347.067    -855.717
  P     -594.675     347.183    -854.125
  C     -592.492     347.898    -855.366
  O     -593.478     346.891    -855.144
  O     -595.591     345.856    -854.215
  O     -594.263     347.470    -852.706
  H     -595.406     345.268    -853.461
  H     -591.618     347.431    -855.836
  H     -592.190     348.361    -854.416
  H     -592.899     348.666    -856.028
  H     -599.041     342.705    -853.337
  H     -600.117     343.164    -854.634
  H     -600.601     343.401    -852.972

 3  4  5  6  7  8  9  10  11  12  22  25  29  30  31  32 0
 6-311+G(2d,p)
 ****
 33  36  37 0
 6-311+G(2d,p)
 ****
 1  2  13  14  15  16  17  18  19  20  21  23  24  26 0
 3-21G
 ****
 27  28  34  35  38  39  40  41  42  43  44  45  46  47  48 0
 3-21G
 ****


