%nproc=1
%NoSave
%Mem=1900MB
#P OB98/GEN NMR

erre ene a

0 1
  C      -25.286     275.878     252.347
  O      -26.670     276.143     252.448
  H      -24.767     276.413     253.147
  H      -24.902     276.225     251.385
  H      -25.098     274.806     252.458
  P      -27.614     275.497     251.325
  C      -28.037     277.784     250.168
  O      -28.602     276.661     250.830
  C      -28.993     278.972     250.264
  O      -30.142     278.744     249.420
  C      -29.558     279.202     251.662
  O      -28.634     279.857     252.511
  C      -30.772     280.057     251.340
  O      -30.421     281.442     251.202
  C      -31.250     279.467     249.995
  N      -32.436     278.625     250.150
  C      -33.571     279.269     250.628
  O      -33.601     280.468     250.909
  N      -34.671     278.477     250.812
  C      -34.734     277.129     250.606
  O      -35.730     276.464     250.860
  C      -33.503     276.506     250.087
  C      -32.425     277.264     249.898
  O      -28.566     274.523     252.169
  O      -26.897     274.778     250.232
  H      -28.273     273.600     252.064
  H      -31.259     281.923     251.063
  H      -35.504     278.927     251.167
  H      -33.521     275.438     249.909
  H      -31.499     276.830     249.534
  H      -31.499     280.273     249.294
  H      -31.523     279.999     252.130
  H      -29.894     278.254     252.094
  H      -28.470     279.870     249.905
  H      -27.871     277.543     249.115
  H      -27.074     278.024     250.632
  P      -28.246     279.162     253.900
  C      -29.712     280.998     255.079
  O      -28.505     280.254     255.049
  O      -26.653     279.098     253.778
  O      -28.913     277.846     254.124
  H      -26.271     279.868     253.320
  H      -29.697     281.669     255.912
  H      -30.541     280.329     255.175
  H      -29.809     281.558     254.172

 6  7  8  9  10  11  12  13  14  15  16  27  31  32  33  34  35 0
 6-311+G(2d,p)
 ****
 36  37 0
 6-311+G(2d,p)
 ****
 1  2  3  4  5  17  18  19  20  21  22  23  24  25 0
 3-21G
 ****
 26  28  29  30  38  39  40  41  42  43  44  45 0
 3-21G
 ****


