%nproc=1
%NoSave
%Mem=1900MB
#P OB98/GEN NMR

erre ene a

0 1
  C     -112.724    -457.758     654.257
  O     -112.668    -456.423     653.797
  H     -112.014    -458.355     653.677
  H     -113.727    -458.169     654.117
  H     -112.442    -457.813     655.311
  P     -113.658    -455.342     654.446
  C     -115.440    -455.327     652.575
  O     -115.134    -455.692     653.919
  C     -116.942    -455.063     652.428
  O     -117.198    -454.738     651.034
  C     -117.789    -456.286     652.800
  O     -118.807    -455.988     653.755
  C     -118.228    -456.835     651.444
  O     -119.436    -457.570     651.472
  C     -118.256    -455.588     650.557
  N     -118.082    -455.872     649.137
  C     -118.928    -456.822     648.562
  O     -119.812    -457.428     649.158
  N     -118.723    -457.067     647.226
  C     -117.775    -456.487     646.433
  O     -117.647    -456.743     645.246
  C     -116.898    -455.510     647.097
  C     -117.087    -455.255     648.395
  O     -113.254    -453.915     654.277
  O     -113.724    -455.754     655.994
  H     -119.639    -457.824     650.547
  H     -113.195    -455.122     656.521
  H     -119.336    -457.742     646.798
  H     -116.122    -455.037     646.504
  H     -116.457    -454.538     648.919
  H     -119.203    -455.051     650.671
  H     -117.443    -457.514     651.081
  H     -117.182    -457.042     653.308
  H     -117.207    -454.185     653.025
  H     -115.128    -456.154     651.928
  H     -114.874    -454.431     652.299
  P     -119.116    -456.849     655.062
  C     -121.303    -458.060     654.227
  O     -119.938    -458.151     654.628
  O     -119.640    -456.084     656.237
  O     -117.686    -457.453     655.479
  H     -117.683    -457.530     656.452
  H     -121.667    -459.035     653.978
  H     -121.382    -457.421     653.372
  H     -121.884    -457.656     655.029

 6  7  8  9  10  11  12  13  14  15  16  26  31  32  33  34  35 0
 6-311+G(2d,p)
 ****
 36  37 0
 6-311+G(2d,p)
 ****
 1  2  3  4  5  17  18  19  20  21  22  23  24  25 0
 3-21G
 ****
 27  28  29  30  38  39  40  41  42  43  44  45 0
 3-21G
 ****


