%nproc=1
%NoSave
%Mem=1900MB
#P OB98/GEN NMR

erre ene a

0 1
  C     1466.984    -540.114    -108.013
  O     1466.287    -540.199    -106.776
  H     1466.346    -539.595    -108.732
  H     1467.193    -541.109    -108.395
  H     1467.918    -539.559    -107.886
  P     1467.011    -540.935    -105.547
  C     1467.315    -540.380    -103.038
  O     1466.571    -540.124    -104.230
  C     1466.628    -539.719    -101.849
  O     1466.632    -538.281    -101.990
  C     1465.158    -540.133    -101.657
  O     1465.094    -541.388    -101.005
  C     1464.660    -538.983    -100.816
  O     1465.107    -539.137     -99.443
  C     1465.382    -537.782    -101.468
  N     1462.074    -534.113    -102.717
  C     1462.564    -534.498    -101.473
  N     1462.052    -533.843    -100.414
  N     1463.440    -535.455    -101.296
  C     1463.804    -536.089    -102.438
  C     1463.374    -535.803    -103.725
  C     1462.448    -534.722    -103.919
  O     1462.010    -534.338    -105.001
  N     1463.911    -536.700    -104.630
  C     1464.682    -537.475    -103.880
  N     1464.628    -537.144    -102.555
  O     1468.496    -541.130    -105.678
  O     1466.225    -542.322    -105.403
  H     1465.016    -538.254     -99.035
  H     1466.665    -543.024    -105.925
  H     1461.382    -533.399    -102.792
  H     1465.297    -538.301    -104.279
  H     1465.616    -536.999    -100.744
  H     1463.572    -538.896    -100.794
  H     1461.194    -533.315    -100.467
  H     1464.619    -540.134    -102.608
  H     1462.357    -534.122     -99.489
  H     1467.218    -539.951    -100.951
  H     1468.326    -539.972    -103.176
  H     1467.382    -541.457    -102.871
  P     1463.780    -542.311    -101.124
  C     1463.278    -544.816    -100.680
  O     1464.236    -543.764    -100.592
  O     1463.159    -542.320    -102.504
  O     1462.803    -541.803     -99.976
  H     1462.207    -541.072    -100.259
  H     1463.704    -545.720    -100.297
  H     1462.999    -544.959    -101.703
  H     1462.412    -544.559    -100.106

 6  7  8  9  10  11  12  13  14  15  26  29  33  34 0
 6-311+G(2d,p)
 ****
 36  38  39  40  41 0
 6-311+G(2d,p)
 ****
 1  2  3  4  5  16  17  18  19  20  21  22  23  24  25 0
 3-21G
 ****
 27  28  30  31  32  35  37  42  43  44  45  46  47 0
 3-21G
 ****
 48  49 0
 3-21G
 ****


