%nproc=1
%NoSave
%Mem=1900MB
#P OB98/GEN NMR

erre ene a

0 1
  C      161.648      86.418      27.088
  O      161.392      87.774      27.382
  P      162.506      88.892      27.103
  C      164.955      89.244      27.821
  O      163.730      88.565      28.089
  C      165.920      89.067      28.990
  O      165.374      89.639      30.209
  C      166.200      87.616      29.353
  O      166.898      86.834      28.405
  C      166.831      87.768      30.728
  O      168.212      88.117      30.630
  C      166.013      88.949      31.312
  N      165.040      88.499      32.307
  C      165.142      89.085      33.565
  O      165.987      89.930      33.857
  N      164.249      88.639      34.503
  C      163.320      87.656      34.326
  O      162.581      87.275      35.226
  C      163.270      87.065      32.980
  C      164.119      87.505      32.045
  O      162.020      90.302      27.166
  O      163.100      88.472      25.675
  H      168.678      87.358      30.227
  H      163.497      87.583      25.644
  H      164.314      89.041      35.426
  H      162.535      86.290      32.801
  H      164.101      87.080      31.046
  H      166.682      89.675      31.792
  H      166.771      86.841      31.306
  H      165.236      87.109      29.497
  H      166.839      89.612      28.762
  H      164.746      90.311      27.689
  H      165.385      88.867      26.888
  P      166.923      85.233      28.433
  C      167.885      83.382      29.973
  O      167.773      84.763      29.711
  O      167.194      84.545      27.135
  O      165.421      84.895      28.897
  H      165.147      84.047      28.500
  H      168.453      83.247      30.897
  H      168.417      82.878      29.158
  H      166.895      82.932      30.105
  H      160.791      85.830      27.342
  H      162.491      86.083      27.656
  H      161.857      86.313      26.044

 3  4  5  6  7  8  9  10  11  12  13  23  28  29  30  31  32 0
 6-311+G(2d,p)
 ****
 33  34 0
 6-311+G(2d,p)
 ****
 1  2  14  15  16  17  18  19  20  21  22  24  25  26  27 0
 3-21G
 ****
 35  36  37  38  39  40  41  42  43  44  45 0
 3-21G
 ****


