%nproc=1
%NoSave
%Mem=1900MB
#P OB98/GEN NMR

erre ene a

0 1
  C     -277.610     -29.239     536.945
  O     -276.415     -29.979     536.806
  P     -275.009     -29.363     537.267
  C     -274.070     -28.683     534.960
  O     -274.664     -28.231     536.181
  C     -273.583     -27.502     534.121
  O     -274.655     -26.542     533.927
  C     -272.441     -26.717     534.741
  O     -271.219     -27.408     534.587
  C     -272.529     -25.397     533.979
  O     -271.873     -25.497     532.706
  C     -274.061     -25.241     533.791
  N     -274.634     -24.283     534.730
  C     -274.010     -23.037     534.796
  O     -273.016     -22.802     534.106
  N     -274.496     -22.087     535.674
  C     -275.510     -22.379     536.430
  N     -275.944     -21.408     537.284
  C     -276.183     -23.694     536.420
  C     -275.694     -24.594     535.556
  O     -273.925     -30.354     537.527
  O     -275.401     -28.500     538.571
  H     -272.016     -24.634     532.260
  H     -275.589     -29.076     539.348
  H     -277.010     -23.899     537.083
  H     -276.119     -25.584     535.482
  H     -274.285     -24.901     532.773
  H     -272.064     -24.569     534.524
  H     -272.652     -26.534     535.811
  H     -273.283     -27.884     533.132
  H     -275.436     -20.538     537.284
  H     -274.825     -29.245     534.402
  H     -276.696     -21.539     537.946
  H     -273.235     -29.355     535.198
  P     -270.070     -27.268     535.695
  C     -268.865     -25.337     534.503
  O     -269.549     -25.753     535.680
  O     -269.001     -28.310     535.648
  O     -270.876     -27.346     537.085
  H     -270.391     -27.932     537.706
  H     -268.855     -24.250     534.464
  H     -269.364     -25.728     533.601
  H     -267.833     -25.697     534.526
  H     -278.433     -29.819     536.583
  H     -277.536     -28.333     536.380
  H     -277.766     -29.004     537.977

 3  4  5  6  7  8  9  10  11  12  13  23  27  28  29  30  32 0
 6-311+G(2d,p)
 ****
 34  35 0
 6-311+G(2d,p)
 ****
 1  2  14  15  16  17  18  19  20  21  22  24  25  26 0
 3-21G
 ****
 31  33  36  37  38  39  40  41  42  43  44  45  46 0
 3-21G
 ****


