%nproc=1
%NoSave
%Mem=1900MB
#P OB98/GEN NMR

erre ene a

0 1
  C       34.114      36.052      -2.808
  O       33.514      37.017      -1.970
  P       32.475      36.650      -0.813
  C       33.431      38.143       1.086
  O       33.219      36.822       0.602
  C       33.387      38.234       2.618
  O       32.071      37.873       3.082
  C       34.356      37.221       3.234
  O       35.727      37.538       3.368
  C       33.678      36.754       4.515
  O       34.169      37.430       5.674
  C       32.205      37.093       4.281
  N       30.270      33.057       6.661
  C       30.882      34.173       7.198
  N       31.180      34.107       8.514
  N       31.191      35.235       6.501
  C       30.919      35.112       5.181
  C       30.303      34.065       4.536
  C       29.929      32.915       5.325
  O       29.462      31.873       4.873
  N       30.257      34.256       3.180
  C       30.882      35.401       2.995
  N       31.336      35.938       4.176
  O       31.623      35.443      -1.032
  O       31.503      37.939      -0.843
  H       35.121      37.238       5.752
  H       30.603      37.631      -0.622
  H       30.127      32.235       7.233
  H       31.061      35.863       2.032
  H       31.815      37.710       5.100
  H       33.860      35.686       4.682
  H       31.089      33.253       9.045
  H       34.352      36.342       2.578
  H       31.777      34.829       8.901
  H       33.550      39.261       2.955
  H       32.665      38.784       0.638
  H       34.400      38.509       0.734
  P       36.923      36.502       3.599
  C       37.305      35.664       1.214
  O       36.809      35.344       2.501
  O       36.534      35.745       4.956
  O       38.277      37.121       3.721
  H       37.335      35.364       5.361
  H       36.910      34.947       0.491
  H       38.398      35.601       1.217
  H       37.002      36.672       0.916
  H       34.769      36.539      -3.500
  H       33.354      35.525      -3.346
  H       34.674      35.361      -2.213

 3  4  5  6  7  8  9  10  11  12  23  26  30  31 0
 6-311+G(2d,p)
 ****
 33  35  36  37  38 0
 6-311+G(2d,p)
 ****
 1  2  13  14  15  16  17  18  19  20  21  22  24  25 0
 3-21G
 ****
 27  28  29  32  34  39  40  41  42  43  44  45  46  47  48  49 0
 3-21G
 ****


