%nproc=1
%NoSave
%Mem=1900MB
#P OB98/GEN NMR

erre ene a

0 1
  C     -308.644     -99.844     923.036
  O     -308.553    -100.210     921.680
  H     -308.569    -100.747     923.652
  H     -309.606     -99.363     923.246
  H     -307.824     -99.173     923.312
  P     -308.699     -99.066     920.564
  C     -306.253     -99.409     919.801
  O     -307.228     -98.491     920.295
  C     -304.861     -98.770     919.820
  O     -304.921     -97.561     919.016
  C     -304.406     -98.388     921.235
  O     -303.121     -98.917     921.566
  C     -304.594     -96.879     921.262
  O     -303.754     -96.205     922.182
  C     -304.399     -96.468     919.798
  N     -305.055     -95.221     919.439
  C     -304.240     -94.130     919.135
  O     -303.006     -94.145     919.134
  N     -304.893     -92.970     918.808
  C     -306.252     -92.797     918.774
  O     -306.779     -91.728     918.477
  C     -307.058     -93.974     919.136
  C     -306.430     -95.118     919.443
  O     -309.732     -98.028     920.838
  O     -309.022     -99.877     919.219
  H     -303.779     -95.249     921.951
  H     -309.970     -99.774     918.996
  H     -304.317     -92.185     918.569
  H     -308.131     -93.870     919.125
  H     -306.995     -96.004     919.711
  H     -303.333     -96.364     919.568
  H     -305.627     -96.659     921.562
  H     -305.062     -98.848     921.987
  H     -304.153     -99.460     919.339
  H     -306.537     -99.681     918.777
  H     -306.255    -100.312     920.426
  P     -302.855    -100.136     922.564
  C     -301.478    -101.924     921.214
  O     -302.739    -101.476     921.702
  O     -303.731    -100.189     923.781
  O     -301.345     -99.892     923.068
  H     -301.297    -100.231     923.982
  H     -301.611    -102.832     920.664
  H     -300.818    -102.099     922.038
  H     -301.058    -101.177     920.573

 6  7  8  9  10  11  12  13  14  15  16  26  31  32  33  34  35 0
 6-311+G(2d,p)
 ****
 36  37 0
 6-311+G(2d,p)
 ****
 1  2  3  4  5  17  18  19  20  21  22  23  24  25 0
 3-21G
 ****
 27  28  29  30  38  39  40  41  42  43  44  45 0
 3-21G
 ****


