%nproc=1
%NoSave
%Mem=1900MB
#P OB98/GEN NMR

erre ene a

0 1
  C      -55.305     157.160     119.982
  O      -54.385     157.769     120.868
  H      -54.747     156.542     119.272
  H      -55.860     157.919     119.425
  H      -55.999     156.519     120.532
  P      -54.949     158.765     121.989
  C      -55.162     156.865     123.727
  O      -55.840     157.868     122.978
  C      -55.012     157.303     125.182
  O      -56.285     157.709     125.720
  C      -54.479     156.214     126.114
  O      -53.067     156.121     126.018
  C      -54.939     156.751     127.459
  O      -54.073     157.826     127.874
  C      -56.336     157.304     127.118
  N      -58.890     154.386     130.396
  C      -57.732     155.118     130.577
  N      -57.155     155.037     131.796
  N      -57.182     155.853     129.645
  C      -57.827     155.784     128.457
  C      -58.970     155.081     128.150
  C      -59.607     154.326     129.209
  O      -60.649     153.682     129.095
  N      -59.278     155.178     126.814
  C      -58.350     155.981     126.329
  N      -57.438     156.370     127.284
  O      -55.651     159.991     121.486
  O      -53.668     159.128     122.877
  H      -54.461     158.212     128.682
  H      -53.231     159.937     122.552
  H      -59.263     153.832     131.148
  H      -58.291     156.316     125.298
  H      -56.582     158.193     127.710
  H      -54.917     155.995     128.249
  H      -57.446     154.375     132.504
  H      -54.970     155.252     125.927
  H      -56.275     155.520     131.930
  H      -54.359     158.187     125.201
  H      -54.178     156.720     123.267
  H      -55.711     155.919     123.683
  P      -52.286     154.771     126.409
  C      -53.638     153.513     124.594
  O      -53.256     153.574     125.959
  O      -51.827     154.701     127.826
  O      -51.111     154.668     125.332
  H      -50.306     155.183     125.591
  H      -54.280     152.671     124.441
  H      -52.765     153.412     123.984
  H      -54.157     154.410     124.328

 6  7  8  9  10  11  12  13  14  15  26  29  33  34 0
 6-311+G(2d,p)
 ****
 36  38  39  40  41 0
 6-311+G(2d,p)
 ****
 1  2  3  4  5  16  17  18  19  20  21  22  23  24  25 0
 3-21G
 ****
 27  28  30  31  32  35  37  42  43  44  45  46  47 0
 3-21G
 ****
 48  49 0
 3-21G
 ****


