%nproc=1
%NoSave
%Mem=1900MB
#P OB98/GEN NMR

erre ene a

0 1
  C     -429.705      -4.307      46.679
  O     -430.316      -4.985      47.760
  H     -429.323      -5.047      45.972
  H     -428.870      -3.704      47.046
  H     -430.431      -3.668      46.168
  P     -431.144      -4.080      48.792
  C     -433.311      -3.551      47.413
  O     -432.067      -3.091      47.923
  C     -434.100      -2.386      46.819
  O     -435.350      -2.842      46.268
  C     -434.515      -1.335      47.834
  O     -433.433      -0.540      48.270
  C     -435.551      -0.560      47.027
  O     -434.938       0.433      46.194
  C     -436.198      -1.675      46.168
  N     -437.563      -1.944      46.577
  C     -438.538      -1.724      45.591
  O     -438.205      -1.353      44.466
  N     -439.855      -1.900      45.923
  C     -440.179      -2.234      47.133
  N     -441.505      -2.360      47.404
  C     -439.184      -2.469      48.199
  C     -437.906      -2.309      47.857
  O     -430.017      -3.108      49.381
  O     -431.894      -4.843      49.830
  H     -434.383       0.984      46.785
  H     -429.467      -2.689      48.696
  H     -439.503      -2.762      49.191
  H     -437.108      -2.461      48.575
  H     -436.207      -1.383      45.108
  H     -436.258      -0.036      47.675
  H     -435.029      -1.807      48.679
  H     -433.500      -1.946      46.010
  H     -442.154      -2.133      46.658
  H     -433.893      -4.041      48.201
  H     -441.875      -2.537      48.326
  H     -433.098      -4.300      46.643
  P     -433.663       0.729      49.220
  C     -432.993      -0.648      51.295
  O     -434.000       0.155      50.684
  O     -434.639       1.736      48.717
  O     -432.180       1.301      49.423
  H     -431.553       0.678      49.827
  H     -433.329      -0.970      52.259
  H     -432.096      -0.074      51.403
  H     -432.798      -1.503      50.682

 6  7  8  9  10  11  12  13  14  15  16  26  30  31  32  33  35 0
 6-311+G(2d,p)
 ****
 37  38 0
 6-311+G(2d,p)
 ****
 1  2  3  4  5  17  18  19  20  21  22  23  24  25 0
 3-21G
 ****
 27  28  29  34  36  39  40  41  42  43  44  45  46 0
 3-21G
 ****


