%nproc=1
%NoSave
%Mem=1900MB
#P OB98/GEN NMR

erre ene a

0 1
  C      362.621    -693.514      72.451
  O      363.757    -692.786      72.891
  H      361.726    -693.079      72.910
  H      362.685    -694.561      72.756
  H      362.525    -693.451      71.365
  P      365.210    -693.331      72.477
  C      366.340    -695.655      72.629
  O      365.316    -694.793      73.118
  C      367.080    -696.308      73.791
  O      366.150    -697.005      74.650
  C      368.092    -697.347      73.349
  O      369.261    -696.739      72.836
  C      368.279    -698.135      74.631
  O      369.169    -697.466      75.532
  C      366.835    -698.154      75.197
  N      366.119    -699.380      74.875
  C      366.664    -700.565      75.403
  O      367.688    -700.525      76.097
  N      366.047    -701.757      75.112
  C      364.977    -701.771      74.380
  N      364.420    -702.986      74.116
  C      364.367    -700.550      73.812
  C      364.986    -699.405      74.095
  O      366.378    -692.439      72.776
  O      365.066    -693.636      70.912
  H      369.204    -698.022      76.335
  H      365.296    -692.847      70.390
  H      363.479    -700.609      73.210
  H      364.596    -698.463      73.722
  H      366.845    -698.028      76.288
  H      368.689    -699.128      74.440
  H      367.646    -698.019      72.605
  H      367.560    -695.515      74.386
  H      364.878    -703.800      74.521
  H      367.028    -695.034      72.042
  H      363.539    -703.118      73.641
  H      365.917    -696.421      71.975
  P      370.252    -697.549      71.863
  C      371.967    -699.430      72.269
  O      370.771    -698.790      72.733
  O      371.313    -696.734      71.206
  O      369.244    -698.237      70.816
  H      368.887    -697.583      70.173
  H      372.216    -700.239      72.924
  H      372.769    -698.722      72.257
  H      371.809    -699.807      71.280

 6  7  8  9  10  11  12  13  14  15  16  26  30  31  32  33  35 0
 6-311+G(2d,p)
 ****
 37  38 0
 6-311+G(2d,p)
 ****
 1  2  3  4  5  17  18  19  20  21  22  23  24  25 0
 3-21G
 ****
 27  28  29  34  36  39  40  41  42  43  44  45  46 0
 3-21G
 ****


