%nproc=1
%NoSave
%Mem=1900MB
#P OB98/GEN NMR

erre ene a

0 1
  C     -823.538    -235.856     207.082
  O     -823.678    -235.080     208.263
  H     -822.861    -235.344     206.399
  H     -824.512    -235.967     206.597
  H     -823.126    -236.846     207.305
  P     -824.378    -235.732     209.547
  C     -822.176    -235.576     210.880
  O     -823.549    -235.226     210.821
  C     -821.359    -234.500     211.592
  O     -821.276    -233.317     210.741
  C     -821.971    -234.045     212.932
  O     -820.882    -233.653     213.784
  C     -822.769    -232.822     212.513
  O     -823.096    -232.006     213.625
  C     -821.822    -232.217     211.476
  N     -822.506    -231.250     210.601
  C     -822.027    -229.943     210.615
  O     -821.093    -229.578     211.343
  N     -822.676    -229.051     209.800
  C     -823.765    -229.324     209.038
  O     -824.321    -228.484     208.358
  C     -824.260    -230.712     209.092
  C     -823.611    -231.603     209.857
  O     -824.593    -237.209     209.478
  O     -825.762    -234.937     209.680
  H     -823.641    -231.258     213.335
  H     -826.439    -235.511     210.082
  H     -822.332    -228.102     209.800
  H     -825.126    -230.960     208.504
  H     -823.959    -232.634     209.919
  H     -820.992    -231.698     211.972
  H     -823.709    -233.129     212.039
  H     -822.575    -234.819     213.417
  H     -820.328    -234.855     211.731
  H     -821.812    -235.702     209.851
  H     -822.062    -236.535     211.398
  P     -820.857    -234.020     215.352
  C     -818.506    -235.046     215.154
  O     -819.328    -234.121     215.837
  O     -821.697    -235.214     215.724
  O     -821.409    -232.706     216.079
  H     -821.828    -232.943     216.934
  H     -817.519    -235.019     215.567
  H     -818.466    -234.789     214.116
  H     -818.911    -236.031     215.262

 6  7  8  9  10  11  12  13  14  15  16  26  31  32  33  34  35 0
 6-311+G(2d,p)
 ****
 36  37 0
 6-311+G(2d,p)
 ****
 1  2  3  4  5  17  18  19  20  21  22  23  24  25 0
 3-21G
 ****
 27  28  29  30  38  39  40  41  42  43  44  45 0
 3-21G
 ****


