%nproc=1
%NoSave
%Mem=1900MB
#P OB98/GEN NMR

erre ene a

0 1
  C      426.667    -104.508     153.959
  O      427.864    -105.221     154.204
  H      425.883    -105.204     153.649
  H      426.355    -104.017     154.886
  H      426.819    -103.747     153.189
  P      428.665    -105.771     152.927
  C      429.329    -108.152     153.719
  O      429.750    -106.815     153.491
  C      430.337    -108.887     154.601
  O      431.680    -108.541     154.157
  C      430.235    -108.544     156.097
  O      430.462    -109.735     156.852
  C      431.401    -107.594     156.316
  O      431.859    -107.583     157.664
  C      432.422    -108.138     155.323
  N      437.317    -106.881     155.882
  C      436.658    -108.046     156.066
  N      435.354    -108.311     155.840
  C      434.736    -107.239     155.314
  C      435.278    -105.990     155.062
  C      436.636    -105.821     155.388
  N      437.298    -104.622     155.266
  N      434.306    -105.135     154.571
  C      433.200    -105.848     154.550
  N      433.408    -107.126     154.993
  O      429.549    -104.500     152.508
  O      427.820    -106.261     151.801
  H      431.145    -107.241     158.237
  H      429.038    -103.935     151.900
  H      437.253    -108.871     156.455
  H      432.223    -105.486     154.259
  H      432.962    -109.013     155.709
  H      431.095    -106.574     156.050
  H      429.275    -108.099     156.384
  H      430.217    -109.964     154.444
  H      429.254    -108.672     152.758
  H      438.241    -104.570     155.626
  H      436.777    -103.802     155.007
  H      428.340    -108.144     154.193
  P      429.226    -110.742     157.036
  C      429.345    -111.550     159.512
  O      429.617    -111.835     158.142
  O      429.228    -111.578     155.673
  O      427.916    -110.056     157.261
  H      428.317    -111.824     155.423
  H      429.663    -112.373     160.117
  H      428.294    -111.396     159.642
  H      429.874    -110.667     159.804

 6  7  8  9  10  11  12  13  14  15  25  28  32  33  34  35 0
 6-311+G(2d,p)
 ****
 36  39  40 0
 6-311+G(2d,p)
 ****
 1  2  3  4  5  16  17  18  19  20  21  22  23  24 0
 3-21G
 ****
 26  27  29  30  31  37  38  41  42  43  44  45  46  47 0
 3-21G
 ****
 48 0
 3-21G
 ****


