%nproc=1
%NoSave
%Mem=1900MB
#P OB98/GEN NMR

erre ene a

0 1
  C      526.925     212.229    -483.188
  O      527.224     213.562    -482.815
  P      528.706     213.984    -482.382
  C      530.185     213.807    -480.303
  O      528.887     213.595    -480.836
  C      530.263     213.376    -478.836
  O      529.535     214.340    -478.021
  C      529.664     211.989    -478.541
  O      530.446     211.422    -477.486
  C      528.276     212.325    -478.027
  O      527.699     211.276    -477.255
  C      528.577     213.592    -477.240
  N      523.703     213.580    -475.688
  C      524.598     212.582    -475.844
  N      525.870     212.663    -476.292
  C      526.192     213.931    -476.577
  C      525.381     215.051    -476.483
  C      524.076     214.846    -475.999
  N      523.161     215.854    -475.797
  N      526.057     216.174    -476.930
  C      527.251     215.741    -477.262
  N      527.401     214.403    -477.007
  O      529.097     215.383    -482.720
  O      529.644     212.927    -483.135
  H      528.087     211.301    -476.358
  H      530.093     213.356    -483.890
  H      524.248     211.592    -475.581
  H      528.044     216.343    -477.703
  H      529.036     213.378    -476.263
  H      527.608     212.533    -478.867
  H      529.641     211.327    -479.409
  H      531.312     213.416    -478.521
  H      530.410     214.878    -480.378
  H      522.310     215.612    -475.329
  H      523.496     216.816    -475.772
  H      530.922     213.256    -480.896
  P      530.935     209.893    -477.584
  C      530.519     207.930    -476.002
  O      529.951     209.053    -476.651
  O      532.388     209.671    -477.347
  O      530.496     209.461    -479.063
  H      530.983     208.652    -479.315
  H      530.574     207.090    -476.697
  H      529.893     207.647    -475.147
  H      531.531     208.151    -475.637
  H      525.888     212.153    -483.441
  H      527.142     211.573    -482.371
  H      527.519     211.954    -484.034

 3  4  5  6  7  8  9  10  11  12  22  25  29  30  31  32 0
 6-311+G(2d,p)
 ****
 33  36  37 0
 6-311+G(2d,p)
 ****
 1  2  13  14  15  16  17  18  19  20  21  23  24  26 0
 3-21G
 ****
 27  28  34  35  38  39  40  41  42  43  44  45  46  47  48 0
 3-21G
 ****


