%nproc=1
%NoSave
%Mem=1900MB
#P OB98/GEN NMR

erre ene a

0 1
  C       38.489     227.054     125.727
  O       39.696     227.801     125.781
  P       39.754     229.189     124.969
  C       42.389     229.098     124.950
  O       41.178     229.195     124.226
  C       43.558     229.613     124.107
  O       43.860     228.667     123.056
  C       43.286     230.936     123.393
  O       43.389     232.040     124.283
  C       44.353     230.912     122.300
  O       45.633     231.302     122.831
  C       44.366     229.409     121.926
  N       43.627     229.104     120.697
  C       44.355     229.110     119.519
  O       45.565     229.347     119.474
  N       43.646     228.846     118.387
  C       42.292     228.649     118.302
  O       41.701     228.465     117.240
  C       41.572     228.688     119.582
  C       42.261     228.905     120.701
  O       39.923     230.225     126.176
  O       38.559     229.414     124.103
  H       40.356     229.818     126.947
  H       45.542     232.231     123.125
  H       44.157     228.822     117.513
  H       40.498     228.544     119.555
  H       41.744     228.956     121.659
  H       45.414     229.072     121.789
  H       44.122     231.578     121.467
  H       42.290     230.920     122.940
  H       44.437     229.696     124.756
  H       42.560     228.048     125.210
  H       42.301     229.671     125.874
  P       42.615     233.384     123.843
  C       43.952     234.785     125.608
  O       43.572     234.601     124.253
  O       41.416     233.433     124.910
  O       42.177     233.375     122.407
  H       41.716     233.203     125.798
  H       44.853     235.404     125.647
  H       44.167     233.818     126.091
  H       43.145     235.285     126.149
  H       38.595     226.162     126.309
  H       38.276     226.794     124.711
  H       37.687     227.643     126.120

 3  4  5  6  7  8  9  10  11  12  13  24  28  29  30  31  32 0
 6-311+G(2d,p)
 ****
 33  34 0
 6-311+G(2d,p)
 ****
 1  2  14  15  16  17  18  19  20  21  22  23  25  26  27 0
 3-21G
 ****
 35  36  37  38  39  40  41  42  43  44  45 0
 3-21G
 ****


