%nproc=1
%NoSave
%Mem=1900MB
#P OB98/GEN NMR

erre ene a

0 1
  C     -233.442      92.100    1216.528
  O     -232.134      91.776    1216.998
  P     -231.852      91.896    1218.570
  C     -230.529      89.676    1218.997
  O     -230.497      91.090    1218.834
  C     -229.561      88.989    1218.018
  O     -229.870      89.385    1216.661
  C     -228.107      89.396    1218.229
  O     -227.564      88.754    1219.372
  C     -227.508      88.956    1216.915
  O     -227.252      87.539    1216.901
  C     -228.634      89.289    1215.920
  N     -228.391      90.511    1215.143
  C     -227.162      90.575    1214.468
  O     -226.328      89.671    1214.529
  N     -226.939      91.711    1213.746
  C     -227.784      92.781    1213.644
  O     -227.539      93.761    1212.970
  C     -229.035      92.680    1214.418
  C     -229.286      91.563    1215.120
  O     -233.002      90.955    1219.159
  O     -231.876      93.306    1219.065
  H     -233.195      90.178    1218.584
  H     -228.113      87.099    1216.947
  H     -226.077      91.760    1213.232
  H     -229.714      93.522    1214.392
  H     -230.196      91.477    1215.720
  H     -228.769      88.458    1215.210
  H     -226.547      89.461    1216.696
  H     -228.012      90.476    1218.339
  H     -229.676      87.916    1218.118
  H     -231.539      89.296    1218.813
  H     -230.283      89.435    1220.038
  P     -227.244      89.711    1220.646
  C     -227.098      87.705    1222.341
  O     -226.442      88.783    1221.700
  O     -228.698      89.857    1221.291
  O     -226.575      90.983    1220.283
  H     -229.193      89.029    1221.339
  H     -226.338      87.029    1222.731
  H     -227.728      87.163    1221.642
  H     -227.703      88.076    1223.175
  H     -233.481      91.974    1215.466
  H     -233.668      93.116    1216.775
  H     -234.158      91.453    1216.990

 3  4  5  6  7  8  9  10  11  12  13  24  28  29  30  31  32 0
 6-311+G(2d,p)
 ****
 33  34 0
 6-311+G(2d,p)
 ****
 1  2  14  15  16  17  18  19  20  21  22  23  25  26  27 0
 3-21G
 ****
 35  36  37  38  39  40  41  42  43  44  45 0
 3-21G
 ****


