%nproc=1
%NoSave
%Mem=1900MB
#P OB98/GEN NMR

erre ene a

0 1
  C     -293.007      77.889     236.712
  O     -292.958      78.847     235.667
  P     -292.741      78.310     234.170
  C     -295.235      77.473     234.074
  O     -293.852      77.176     233.948
  C     -296.044      76.649     233.070
  O     -295.556      76.884     231.732
  C     -295.959      75.142     233.273
  O     -296.772      74.707     234.353
  C     -296.398      74.633     231.905
  O     -297.830      74.666     231.796
  C     -295.770      75.680     230.963
  N     -294.528      75.224     230.339
  C     -294.668      74.351     229.264
  O     -295.757      73.972     228.841
  N     -293.499      73.913     228.698
  C     -292.237      74.201     229.133
  O     -291.226      73.746     228.615
  C     -292.157      75.100     230.293
  C     -293.286      75.562     230.834
  O     -291.368      77.505     234.343
  O     -292.713      79.400     233.155
  H     -291.251      77.183     235.254
  H     -298.169      73.990     232.417
  H     -293.573      73.298     227.901
  H     -291.172      75.346     230.672
  H     -293.244      76.218     231.694
  H     -296.475      75.950     230.169
  H     -296.077      73.604     231.715
  H     -294.918      74.849     233.458
  H     -297.089      76.984     233.114
  H     -295.389      78.539     233.880
  H     -295.554      77.253     235.097
  P     -296.501      73.221     234.903
  C     -294.009      73.816     235.417
  O     -294.927      72.971     234.761
  O     -297.152      72.336     233.739
  O     -297.074      72.972     236.262
  H     -296.945      72.671     232.851
  H     -293.050      73.298     235.500
  H     -294.355      74.082     236.419
  H     -293.867      74.727     234.827
  H     -293.155      78.388     237.647
  H     -292.086      77.345     236.740
  H     -293.817      77.212     236.537

 3  4  5  6  7  8  9  10  11  12  13  24  28  29  30  31  32 0
 6-311+G(2d,p)
 ****
 33  34 0
 6-311+G(2d,p)
 ****
 1  2  14  15  16  17  18  19  20  21  22  23  25  26  27 0
 3-21G
 ****
 35  36  37  38  39  40  41  42  43  44  45 0
 3-21G
 ****


