%nproc=1
%NoSave
%Mem=1900MB
#P OB98/GEN NMR

erre ene a

0 1
  C      285.927    -650.424    -865.559
  O      286.854    -650.586    -866.620
  H      286.098    -651.212    -864.819
  H      284.898    -650.516    -865.944
  H      286.061    -649.447    -865.083
  P      286.719    -649.554    -867.846
  C      289.255    -650.055    -868.091
  O      288.032    -649.766    -868.756
  C      290.388    -650.216    -869.104
  O      290.380    -651.550    -869.691
  C      290.336    -649.223    -870.267
  O      290.926    -647.990    -869.905
  C      291.134    -649.970    -871.326
  O      292.556    -649.831    -871.102
  C      290.701    -651.439    -871.100
  N      289.085    -652.345    -875.803
  C      290.294    -651.857    -875.354
  N      291.200    -651.529    -876.298
  N      290.595    -651.682    -874.088
  C      289.563    -651.997    -873.252
  C      288.323    -652.488    -873.572
  C      288.036    -652.739    -874.964
  O      287.004    -653.247    -875.431
  N      287.556    -652.716    -872.444
  C      288.335    -652.301    -871.450
  N      289.567    -651.868    -871.890
  O      286.978    -648.133    -867.156
  O      285.414    -649.575    -868.571
  H      292.830    -650.461    -870.415
  H      286.379    -647.467    -867.576
  H      288.930    -652.491    -876.781
  H      288.059    -652.329    -870.406
  H      291.511    -652.141    -871.317
  H      290.930    -649.581    -872.328
  H      290.946    -651.363    -877.265
  H      289.302    -649.100    -870.616
  H      292.062    -651.086    -875.965
  H      291.347    -650.120    -868.553
  H      289.129    -651.009    -867.531
  H      289.493    -649.259    -867.388
  P      290.007    -646.673    -869.981
  C      291.830    -645.510    -868.521
  O      290.931    -645.401    -869.626
  O      289.061    -646.809    -868.681
  O      289.209    -646.553    -871.238
  H      288.154    -647.080    -868.970
  H      292.371    -644.594    -868.410
  H      292.517    -646.311    -868.698
  H      291.275    -645.707    -867.628

 6  7  8  9  10  11  12  13  14  15  26  29  33  34 0
 6-311+G(2d,p)
 ****
 36  38  39  40  41 0
 6-311+G(2d,p)
 ****
 1  2  3  4  5  16  17  18  19  20  21  22  23  24  25 0
 3-21G
 ****
 27  28  30  31  32  35  37  42  43  44  45  46  47 0
 3-21G
 ****
 48  49 0
 3-21G
 ****


