%nproc=1
%NoSave
%Mem=1900MB
#P OB98/GEN NMR

erre ene a

0 1
  C      297.803    -346.398     190.802
  O      297.576    -346.595     192.197
  P      297.375    -345.289     193.107
  C      298.611    -346.163     195.231
  O      297.383    -345.732     194.647
  C      298.336    -346.912     196.537
  O      297.445    -346.172     197.390
  C      297.663    -348.261     196.326
  O      298.600    -349.231     195.897
  C      297.073    -348.539     197.705
  O      297.989    -349.255     198.545
  C      296.806    -347.119     198.263
  N      295.387    -346.832     198.407
  C      294.676    -347.691     199.262
  O      295.244    -348.632     199.808
  N      293.332    -347.468     199.443
  C      292.750    -346.497     198.811
  N      291.418    -346.327     199.027
  C      293.460    -345.586     197.883
  C      294.757    -345.816     197.730
  O      295.848    -344.891     192.845
  O      298.305    -344.165     192.766
  H      297.502    -349.432     199.383
  H      295.736    -343.921     192.888
  H      292.930    -344.795     197.377
  H      295.361    -345.198     197.073
  H      297.277    -347.006     199.249
  H      296.168    -349.152     197.633
  H      296.849    -348.161     195.588
  H      299.292    -347.052     197.063
  H      290.963    -346.967     199.664
  H      299.261    -345.308     195.421
  H      290.862    -345.606     198.584
  H      299.133    -346.805     194.511
  P      298.790    -349.442     194.327
  C      298.936    -351.814     193.343
  O      299.550    -350.849     194.185
  O      299.961    -348.402     193.982
  O      297.591    -349.245     193.456
  H      300.105    -348.364     193.018
  H      299.654    -352.629     193.177
  H      298.675    -351.373     192.381
  H      298.049    -352.224     193.836
  H      297.919    -347.347     190.322
  H      298.691    -345.818     190.664
  H      296.969    -345.881     190.374

 3  4  5  6  7  8  9  10  11  12  13  21  23  27  28  29  30  32 0
 6-311+G(2d,p)
 ****
 34  35 0
 6-311+G(2d,p)
 ****
 1  2  14  15  16  17  18  19  20  22  24  25  26 0
 3-21G
 ****
 31  33  36  37  38  39  40  41  42  43  44  45  46 0
 3-21G
 ****


