%nproc=1
%NoSave
%Mem=1900MB
#P OB98/GEN NMR

erre ene a

0 1
  C       53.726    -309.407    -887.450
  O       54.146    -308.217    -888.090
  H       53.289    -309.137    -886.480
  H       54.584    -310.058    -887.280
  H       52.972    -309.925    -888.040
  P       54.738    -308.376    -889.580
  C       53.062    -306.902    -890.890
  O       53.492    -308.225    -890.590
  C       52.848    -306.760    -892.400
  O       54.129    -306.974    -893.090
  C       51.842    -307.760    -893.010
  O       51.137    -307.097    -894.070
  C       52.735    -308.815    -893.620
  O       52.087    -309.577    -894.640
  C       53.884    -307.936    -894.140
  N       56.624    -309.901    -897.870
  C       55.481    -309.121    -897.900
  N       55.005    -308.814    -899.130
  N       54.878    -308.678    -896.840
  C       55.490    -309.037    -895.690
  C       56.612    -309.807    -895.510
  C       57.262    -310.313    -896.700
  O       58.256    -311.036    -896.730
  N       56.898    -309.961    -894.180
  C       55.966    -309.287    -893.550
  N       55.077    -308.706    -894.420
  O       55.094    -309.939    -889.650
  O       55.924    -307.517    -889.890
  H       51.620    -308.944    -895.230
  H       56.027    -310.082    -889.400
  H       57.046    -310.227    -898.710
  H       55.864    -309.189    -892.470
  H       53.616    -307.404    -895.050
  H       53.086    -309.509    -892.850
  H       55.440    -309.083    -900.000
  H       51.123    -308.165    -892.290
  H       54.184    -308.208    -899.180
  H       52.551    -305.727    -892.620
  H       53.824    -306.192    -890.580
  H       52.131    -306.689    -890.370
  P       49.533    -307.199    -894.080
  C       49.438    -304.643    -893.590
  O       48.951    -305.949    -893.280
  O       49.247    -308.430    -893.090
  O       48.958    -307.435    -895.440
  H       48.410    -308.859    -893.330
  H       48.949    -303.923    -892.968
  H       49.237    -304.422    -894.617
  H       50.493    -304.605    -893.417

 6  7  8  9  10  11  12  13  14  15  26  29  33  34 0
 6-311+G(2d,p)
 ****
 36  38  39  40  41 0
 6-311+G(2d,p)
 ****
 1  2  3  4  5  16  17  18  19  20  21  22  23  24  25 0
 3-21G
 ****
 27  28  30  31  32  35  37  42  43  44  45  46  47 0
 3-21G
 ****
 48  49 0
 3-21G
 ****


