%nproc=1
%NoSave
%Mem=1900MB
#P OB98/GEN NMR

erre ene a

0 1
  C      -72.431      38.975     -46.733
  O      -72.532      39.386     -45.379
  P      -72.353      40.930     -44.980
  C      -73.718      43.072     -45.377
  O      -73.439      41.751     -45.830
  C      -73.893      44.022     -46.560
  O      -72.607      44.216     -47.197
  C      -74.853      43.497     -47.623
  O      -75.580      44.600     -48.176
  C      -73.947      42.939     -48.706
  O      -74.598      42.953     -49.988
  C      -72.730      43.858     -48.586
  N      -70.308      41.445     -52.418
  C      -71.540      41.991     -52.339
  N      -72.128      42.594     -51.282
  C      -71.282      42.651     -50.240
  C      -69.995      42.142     -50.171
  C      -69.506      41.508     -51.331
  N      -68.244      40.962     -51.411
  N      -69.443      42.363     -48.924
  C      -70.376      43.012     -48.262
  N      -71.501      43.220     -49.016
  O      -70.960      41.450     -45.086
  O      -72.912      41.027     -43.487
  H      -75.295      42.265     -49.964
  H      -72.368      41.642     -42.959
  H      -72.137      41.938     -53.243
  H      -70.293      43.342     -47.237
  H      -72.862      44.781     -49.165
  H      -73.690      41.899     -48.472
  H      -75.548      42.745     -47.232
  H      -74.224      44.994     -46.183
  H      -72.878      43.411     -44.766
  H      -67.936      40.639     -52.316
  H      -67.588      41.161     -50.667
  H      -74.619      43.059     -44.756
  P      -77.063      44.266     -48.712
  C      -79.047      43.036     -47.565
  O      -77.654      43.222     -47.654
  O      -77.056      43.853     -50.150
  O      -77.818      45.644     -48.413
  H      -77.386      46.140     -47.685
  H      -79.255      42.321     -46.765
  H      -79.437      42.630     -48.503
  H      -79.548      43.981     -47.333
  H      -72.579      37.917     -46.797
  H      -71.461      39.223     -47.110
  H      -73.178      39.475     -47.314

 3  4  5  6  7  8  9  10  11  12  22  25  29  30  31  32 0
 6-311+G(2d,p)
 ****
 33  36  37 0
 6-311+G(2d,p)
 ****
 1  2  13  14  15  16  17  18  19  20  21  23  24  26 0
 3-21G
 ****
 27  28  34  35  38  39  40  41  42  43  44  45  46  47  48 0
 3-21G
 ****


