%nproc=1
%NoSave
%Mem=1900MB
#P OB98/GEN NMR

erre ene a

0 1
  C      -28.841     104.903      10.077
  O      -27.954     103.879      10.480
  P      -26.672     104.218      11.382
  C      -27.252     102.269      12.967
  O      -27.028     103.671      12.850
  C      -28.079     101.951      14.212
  O      -29.404     102.511      14.096
  C      -28.280     100.464      14.466
  O      -27.111      99.890      15.020
  C      -29.482     100.484      15.400
  O      -29.083     100.738      16.757
  C      -30.304     101.667      14.843
  N      -31.432     101.226      14.032
  C      -32.429     100.513      14.708
  O      -32.311     100.262      15.906
  N      -33.513     100.060      13.994
  C      -33.579     100.279      12.717
  N      -34.671      99.795      12.065
  C      -32.534     100.999      11.963
  C      -31.499     101.439      12.676
  O      -26.206     105.634      11.321
  O      -25.579     103.166      10.866
  H      -28.563     101.566      16.736
  H      -25.223     103.422       9.981
  H      -32.628     101.148      10.898
  H      -30.685     101.974      12.202
  H      -30.694     102.283      15.664
  H      -30.021      99.531      15.396
  H      -28.551      99.962      13.529
  H      -27.587     102.421      15.076
  H      -35.349      99.281      12.613
  H      -26.280     101.771      13.044
  H      -34.805      99.878      11.069
  H      -27.754     101.905      12.065
  P      -26.595      98.469      14.499
  C      -24.417      99.015      13.256
  O      -25.792      98.709      13.133
  O      -27.627      97.391      14.450
  O      -25.432      98.092      15.535
  H      -25.527      97.153      15.791
  H      -23.927      98.826      12.298
  H      -23.944      98.396      14.025
  H      -24.299     100.071      13.513
  H      -29.627     104.482       9.486
  H      -28.309     105.628       9.497
  H      -29.258     105.374      10.942

 3  4  5  6  7  8  9  10  11  12  13  23  27  28  29  30  32 0
 6-311+G(2d,p)
 ****
 34  35 0
 6-311+G(2d,p)
 ****
 1  2  14  15  16  17  18  19  20  21  22  24  25  26 0
 3-21G
 ****
 31  33  36  37  38  39  40  41  42  43  44  45  46 0
 3-21G
 ****


