%nproc=1
%NoSave
%Mem=1900MB
#P OB98/GEN NMR

erre ene a

0 1
  C      501.046     170.872    -363.295
  O      499.721     171.363    -363.352
  H      501.163     170.098    -364.058
  H      501.253     170.439    -362.317
  H      501.755     171.679    -363.502
  P      499.329     172.485    -362.268
  C      497.824     170.840    -360.971
  O      497.877     172.037    -361.741
  C      496.417     170.617    -360.415
  O      496.123     171.670    -359.458
  C      495.322     170.660    -361.499
  O      494.303     169.717    -361.157
  C      494.767     172.075    -361.361
  O      493.438     172.180    -361.867
  C      494.899     172.303    -359.854
  N      492.628     176.768    -360.802
  C      492.299     175.499    -361.124
  N      492.954     174.366    -360.812
  C      494.022     174.624    -360.034
  C      494.483     175.865    -359.627
  C      493.738     176.978    -360.047
  N      494.075     178.274    -359.748
  N      495.635     175.725    -358.881
  C      495.867     174.425    -358.829
  N      494.917     173.723    -359.532
  O      499.423     173.899    -362.736
  O      500.280     172.099    -361.037
  H      492.999     172.945    -361.437
  H      500.259     171.139    -360.855
  H      491.396     175.386    -361.730
  H      496.692     173.945    -358.317
  H      494.066     171.853    -359.278
  H      495.395     172.776    -361.915
  H      495.698     170.465    -362.495
  H      496.394     169.666    -359.866
  H      498.538     170.900    -360.131
  H      493.491     179.024    -360.097
  H      494.899     178.460    -359.186
  H      498.119     170.007    -361.617
  P      493.989     168.519    -362.163
  C      491.714     169.576    -362.743
  O      492.400     168.389    -362.350
  O      494.687     167.230    -361.868
  O      494.457     169.100    -363.583
  H      494.940     168.415    -364.078
  H      490.668     169.369    -362.836
  H      492.096     169.914    -363.684
  H      491.863     170.336    -362.004

 6  7  8  9  10  11  12  13  14  15  25  28  32  33  34  35 0
 6-311+G(2d,p)
 ****
 36  39  40 0
 6-311+G(2d,p)
 ****
 1  2  3  4  5  16  17  18  19  20  21  22  23  24 0
 3-21G
 ****
 26  27  29  30  31  37  38  41  42  43  44  45  46  47 0
 3-21G
 ****
 48 0
 3-21G
 ****


