%nproc=1
%NoSave
%Mem=1900MB
#P OB98/GEN NMR

erre ene a

0 1
  C        3.400     -30.919     433.805
  O        2.351     -31.761     433.362
  H        2.964     -30.035     434.280
  H        4.016     -30.590     432.964
  H        4.022     -31.442     434.537
  P        2.732     -33.052     432.492
  C        2.164     -32.613     430.006
  O        3.131     -32.495     431.046
  C        2.856     -32.634     428.644
  O        3.490     -31.366     428.390
  C        3.958     -33.679     428.549
  O        3.414     -34.976     428.391
  C        4.747     -33.152     427.369
  O        4.127     -33.503     426.123
  C        4.679     -31.625     427.607
  N        5.870     -31.104     428.269
  C        6.947     -30.781     427.438
  O        6.861     -30.936     426.221
  N        8.101     -30.310     428.016
  C        8.170     -30.159     429.300
  N        9.344     -29.693     429.806
  C        7.055     -30.471     430.213
  C        5.946     -30.937     429.636
  O        1.735     -34.170     432.469
  O        4.139     -33.516     433.102
  H        4.187     -34.476     426.062
  H        4.003     -34.145     433.834
  H        7.155     -30.326     431.277
  H        5.076     -31.190     430.234
  H        4.556     -31.092     426.657
  H        5.761     -33.547     427.356
  H        4.600     -33.632     429.436
  H        2.093     -32.790     427.872
  H       10.085     -29.501     429.145
  H        1.501     -31.746     430.081
  H        9.480     -29.447     430.777
  H        1.564     -33.522     430.138
  P        4.299     -36.274     428.704
  C        6.016     -35.784     426.837
  O        5.791     -35.895     428.246
  O        3.767     -37.556     428.157
  O        4.409     -36.262     430.304
  H        3.558     -36.542     430.727
  H        7.040     -35.529     426.658
  H        5.383     -35.021     426.434
  H        5.793     -36.718     426.366

 6  7  8  9  10  11  12  13  14  15  16  26  30  31  32  33  35 0
 6-311+G(2d,p)
 ****
 37  38 0
 6-311+G(2d,p)
 ****
 1  2  3  4  5  17  18  19  20  21  22  23  24  25 0
 3-21G
 ****
 27  28  29  34  36  39  40  41  42  43  44  45  46 0
 3-21G
 ****


