%nproc=1
%NoSave
%Mem=1900MB
#P OB98/GEN NMR

erre ene a

0 1
  C     -322.293    -389.875    -343.149
  O     -323.082    -389.914    -341.979
  H     -322.841    -390.359    -343.961
  H     -321.363    -390.425    -342.978
  H     -322.069    -388.845    -343.437
  P     -322.669    -388.934    -340.780
  C     -323.079    -390.560    -338.798
  O     -323.512    -389.398    -339.493
  C     -324.009    -390.854    -337.623
  O     -324.091    -389.662    -336.784
  C     -325.440    -391.236    -338.034
  O     -325.934    -392.230    -337.125
  C     -326.214    -389.952    -337.793
  O     -327.604    -390.185    -337.596
  C     -325.491    -389.415    -336.561
  N     -325.087    -385.696    -333.217
  C     -324.548    -386.966    -333.216
  N     -323.836    -387.330    -332.126
  N     -324.694    -387.812    -334.199
  C     -325.412    -387.314    -335.234
  C     -326.005    -386.082    -335.357
  C     -325.846    -385.157    -334.252
  O     -326.320    -384.027    -334.185
  N     -326.697    -385.982    -336.535
  C     -326.543    -387.164    -337.116
  N     -325.774    -388.004    -336.361
  O     -323.360    -387.553    -341.203
  O     -321.201    -388.776    -340.559
  H     -327.972    -390.556    -338.422
  H     -322.719    -386.994    -341.681
  H     -324.959    -385.088    -332.425
  H     -326.981    -387.461    -338.056
  H     -325.789    -389.935    -335.641
  H     -326.094    -389.277    -338.648
  H     -323.654    -386.722    -331.345
  H     -325.525    -391.600    -339.063
  H     -323.400    -388.244    -332.130
  H     -323.561    -391.647    -337.011
  H     -322.065    -390.396    -338.420
  H     -323.059    -391.408    -339.491
  P     -326.538    -393.580    -337.746
  C     -328.421    -393.737    -335.953
  O     -327.319    -394.372    -336.590
  O     -325.236    -394.480    -337.988
  O     -327.307    -393.377    -339.009
  H     -325.358    -395.028    -338.787
  H     -328.830    -394.391    -335.212
  H     -329.171    -393.510    -336.681
  H     -328.091    -392.832    -335.487

 6  7  8  9  10  11  12  13  14  15  26  29  33  34 0
 6-311+G(2d,p)
 ****
 36  38  39  40  41 0
 6-311+G(2d,p)
 ****
 1  2  3  4  5  16  17  18  19  20  21  22  23  24  25 0
 3-21G
 ****
 27  28  30  31  32  35  37  42  43  44  45  46  47 0
 3-21G
 ****
 48  49 0
 3-21G
 ****


