%nproc=1
%NoSave
%Mem=1900MB
#P OB98/GEN NMR

erre ene a

0 1
  C     -372.200    -239.821    -353.983
  O     -373.260    -240.219    -354.825
  P     -374.300    -241.379    -354.450
  C     -373.869    -242.857    -356.544
  O     -373.791    -242.749    -355.126
  C     -373.464    -244.253    -357.069
  O     -372.131    -244.578    -356.594
  C     -374.404    -245.328    -356.487
  O     -375.639    -245.580    -357.101
  C     -373.512    -246.546    -356.290
  O     -373.628    -247.500    -357.351
  C     -372.099    -245.965    -356.234
  N     -368.912    -248.678    -353.383
  C     -369.088    -248.708    -354.751
  N     -368.470    -249.720    -355.415
  N     -369.821    -247.847    -355.406
  C     -370.448    -246.947    -354.588
  C     -370.337    -246.817    -353.225
  C     -369.492    -247.754    -352.521
  O     -369.366    -247.819    -351.306
  N     -371.167    -245.844    -352.733
  C     -371.822    -245.419    -353.801
  N     -371.445    -246.085    -354.942
  O     -375.749    -241.039    -354.521
  O     -373.944    -241.619    -352.884
  H     -372.967    -248.201    -357.208
  H     -374.774    -241.858    -352.433
  H     -368.396    -249.429    -352.930
  H     -372.597    -244.653    -353.787
  H     -371.448    -246.457    -356.978
  H     -373.801    -247.077    -355.364
  H     -368.028    -250.486    -354.925
  H     -374.666    -244.985    -355.476
  H     -368.719    -249.869    -356.378
  H     -373.397    -244.259    -358.162
  H     -373.225    -242.082    -356.971
  H     -374.898    -242.640    -356.872
  P     -376.904    -246.296    -356.424
  C     -376.929    -248.225    -358.128
  O     -376.816    -247.879    -356.760
  O     -378.158    -245.828    -357.317
  O     -377.120    -245.973    -354.987
  H     -378.975    -245.913    -356.783
  H     -377.165    -249.297    -358.193
  H     -375.985    -248.033    -358.637
  H     -377.739    -247.665    -358.618
  H     -371.649    -239.033    -354.452
  H     -371.552    -240.654    -353.807
  H     -372.596    -239.474    -353.051

 3  4  5  6  7  8  9  10  11  12  23  26  30  31 0
 6-311+G(2d,p)
 ****
 33  35  36  37  38 0
 6-311+G(2d,p)
 ****
 1  2  13  14  15  16  17  18  19  20  21  22  24  25 0
 3-21G
 ****
 27  28  29  32  34  39  40  41  42  43  44  45  46  47  48  49 0
 3-21G
 ****


