%nproc=1
%NoSave
%Mem=1900MB
#P OB98/GEN NMR

erre ene a

0 1
  C       -8.653     340.869     -24.523
  O       -9.057     339.745     -23.766
  H       -8.429     340.546     -25.542
  H       -7.752     341.312     -24.088
  H       -9.455     341.615     -24.554
  P       -9.452     340.013     -22.232
  C       -8.246     341.216     -20.266
  O       -8.117     340.521     -21.503
  C       -7.151     340.757     -19.306
  O       -7.264     339.333     -19.081
  C       -5.736     340.973     -19.830
  O       -5.306     342.319     -19.697
  C       -4.949     339.996     -18.962
  O       -4.630     340.569     -17.691
  C       -5.932     338.834     -18.793
  N       -3.573     334.316     -19.076
  C       -3.790     335.159     -18.039
  N       -4.445     336.339     -18.044
  C       -4.918     336.611     -19.272
  C       -4.776     335.847     -20.422
  C       -4.067     334.642     -20.295
  N       -3.823     333.797     -21.350
  N       -5.368     336.479     -21.502
  C       -5.862     337.600     -21.012
  N       -5.621     337.721     -19.671
  O       -9.671     338.538     -21.652
  O      -10.657     340.875     -22.030
  H       -4.183     339.869     -17.181
  H      -10.626     338.337     -21.619
  H       -3.379     334.848     -17.086
  H       -6.395     338.353     -21.582
  H       -5.946     338.448     -17.767
  H       -4.014     339.714     -19.450
  H       -5.672     340.650     -20.880
  H       -7.292     341.268     -18.341
  H       -9.224     341.001     -19.828
  H       -8.169     342.293     -20.455
  H       -3.249     332.987     -21.198
  H       -4.087     334.087     -22.286
  P       -4.513     342.972     -20.923
  C       -2.333     342.366     -22.223
  O       -3.112     342.199     -21.052
  O       -4.100     344.422     -20.383
  O       -5.287     343.051     -22.194
  H       -4.129     345.068     -21.115
  H       -1.439     341.784     -22.142
  H       -2.077     343.399     -22.337
  H       -2.894     342.041     -23.074

 6  7  8  9  10  11  12  13  14  15  25  28  32  33  34  35 0
 6-311+G(2d,p)
 ****
 36  37  40 0
 6-311+G(2d,p)
 ****
 1  2  3  4  5  16  17  18  19  20  21  22  23  24 0
 3-21G
 ****
 26  27  29  30  31  38  39 41  42  43  44  45  46  47  48 0
 3-21G
 ****


