%nproc=1
%NoSave
%Mem=1900MB
#P OB98/GEN NMR

erre ene a

0 1
  C      629.187     -81.294    -104.455
  O      628.181     -82.193    -103.994
  P      628.220     -82.667    -102.457
  C      628.934     -81.186    -100.470
  O      627.999     -81.381    -101.526
  C      628.272     -80.467     -99.282
  O      627.682     -79.223     -99.752
  C      627.127     -81.244     -98.615
  O      627.436     -82.138     -97.555
  C      626.316     -80.103     -97.996
  O      626.890     -79.732     -96.728
  C      626.482     -78.955     -98.993
  N      623.252     -75.610    -101.131
  C      624.283     -75.450    -100.266
  N      625.093     -76.397     -99.751
  C      624.764     -77.612    -100.206
  C      623.739     -77.932    -101.085
  C      622.957     -76.862    -101.552
  N      621.898     -77.023    -102.419
  N      623.699     -79.287    -101.318
  C      624.669     -79.782    -100.576
  N      625.351     -78.810     -99.899
  O      629.367     -83.544    -102.078
  O      626.832     -83.443    -102.304
  H      626.306     -79.044     -96.358
  H      626.959     -84.213    -101.722
  H      624.488     -74.428     -99.965
  H      624.914     -80.838    -100.496
  H      626.619     -77.995     -98.497
  H      625.279     -80.388     -97.801
  H      626.517     -81.763     -99.372
  H      629.040     -80.223     -98.533
  H      629.774     -80.593    -100.833
  H      621.361     -76.215    -102.670
  H      621.626     -77.960    -102.697
  H      629.330     -82.164    -100.199
  P      627.725     -83.691     -97.831
  C      628.890     -83.849    -100.171
  O      629.027     -83.726     -98.773
  O      626.563     -84.472     -98.350
  O      628.289     -84.194     -96.422
  H      629.164     -83.833     -96.188
  H      629.856     -83.634    -100.638
  H      628.151     -83.131    -100.555
  H      628.591     -84.866    -100.428
  H      629.024     -81.077    -105.490
  H      630.150     -81.743    -104.332
  H      629.142     -80.387    -103.889

 3  4  5  6  7  8  9  10  11  12  22  25  29  30  31  32 0
 6-311+G(2d,p)
 ****
 33  36  37 0
 6-311+G(2d,p)
 ****
 1  2  13  14  15  16  17  18  19  20  21  23  24  26 0
 3-21G
 ****
 27  28  34  35  38  39  40  41  42  43  44  45  46  47  48 0
 3-21G
 ****


