%nproc=1
%NoSave
%Mem=1900MB
#P OB98/GEN NMR

erre ene a

0 1
  C      737.610    -109.815      11.843
  O      736.639    -109.606      10.834
  P      735.365    -110.574      10.724
  C      733.912    -108.559      11.393
  O      734.177    -109.943      11.601
  C      732.490    -108.361      10.874
  O      731.525    -108.885      11.812
  C      732.102    -106.908      10.680
  O      732.728    -106.336       9.539
  C      730.586    -107.016      10.582
  O      730.182    -107.425       9.266
  C      730.298    -108.139      11.606
  N      729.768    -107.628      12.861
  C      728.614    -106.835      12.764
  O      728.151    -106.541      11.663
  N      728.026    -106.398      13.925
  C      728.601    -106.617      15.059
  N      727.946    -106.208      16.183
  C      729.903    -107.302      15.192
  C      730.413    -107.797      14.063
  O      735.639    -112.022      10.988
  O      734.842    -110.359       9.224
  H      734.727    -111.235       8.802
  H      730.422    -106.697       8.662
  H      730.375    -107.400      16.157
  H      731.354    -108.343      14.064
  H      729.579    -108.856      11.188
  H      730.081    -106.071      10.797
  H      732.372    -106.329      11.573
  H      732.394    -108.918       9.930
  H      727.046    -105.755      16.054
  H      734.629    -108.173      10.659
  H      728.133    -106.605      17.104
  H      734.056    -108.018      12.337
  P      732.476    -104.772       9.285
  C      734.909    -104.049       9.789
  O      733.548    -103.964      10.154
  O      731.090    -104.493      10.028
  O      732.407    -104.385       7.842
  H      730.566    -103.843       9.520
  H      735.445    -103.200      10.231
  H      735.038    -104.018       8.701
  H      735.343    -104.976      10.185
  H      738.378    -109.075      11.757
  H      738.038    -110.789      11.730
  H      737.147    -109.739      12.805

 3  4  5  6  7  8  9  10  11  12  13  24  27  28  29  30  32 0
 6-311+G(2d,p)
 ****
 34  35 0
 6-311+G(2d,p)
 ****
 1  2  14  15  16  17  18  19  20  21  22  23  25  26 0
 3-21G
 ****
 31  33  36  37  38  39  40  41  42  43  44  45  46 0
 3-21G
 ****


