%nproc=1
%NoSave
%Mem=1900MB
#P OB98/GEN NMR

erre ene a

0 1
  C      -65.816    -329.862      78.905
  O      -65.188    -328.654      78.536
  H      -66.275    -329.730      79.888
  H      -65.070    -330.659      78.969
  H      -66.593    -330.144      78.190
  P      -64.826    -328.414      76.996
  C      -67.346    -327.979      76.652
  O      -66.173    -328.600      76.142
  C      -68.153    -327.291      75.550
  O      -69.270    -326.576      76.123
  C      -67.328    -326.251      74.790
  O      -66.531    -326.762      73.737
  C      -68.415    -325.325      74.253
  O      -68.943    -325.821      73.012
  C      -69.480    -325.380      75.351
  N      -70.206    -320.344      75.808
  C      -70.270    -321.132      74.674
  N      -70.500    -320.486      73.511
  N      -70.105    -322.428      74.689
  C      -69.788    -322.923      75.908
  C      -69.682    -322.240      77.100
  C      -69.921    -320.810      77.082
  O      -69.870    -320.066      78.056
  N      -69.347    -323.079      78.133
  C      -69.176    -324.251      77.556
  N      -69.459    -324.213      76.210
  O      -63.983    -329.719      76.599
  O      -64.052    -327.165      76.707
  H      -69.579    -325.169      72.666
  H      -63.380    -329.514      75.862
  H      -70.369    -319.355      75.741
  H      -68.880    -325.161      78.067
  H      -70.491    -325.448      74.924
  H      -68.028    -324.321      74.053
  H      -70.516    -319.481      73.434
  H      -66.703    -325.681      75.484
  H      -70.290    -320.980      72.640
  H      -68.566    -328.051      74.877
  H      -67.017    -327.243      77.388
  H      -67.964    -328.711      77.178
  P      -65.394    -325.847      73.078
  C      -63.602    -327.524      73.944
  O      -64.023    -326.181      73.838
  O      -65.773    -324.382      73.597
  O      -65.324    -325.908      71.590
  H      -66.294    -323.910      72.923
  H      -62.675    -327.566      74.477
  H      -63.470    -327.935      72.965
  H      -64.342    -328.089      74.471

 6  7  8  9  10  11  12  13  14  15  26  29  33  34 0
 6-311+G(2d,p)
 ****
 36  38  39  40  41 0
 6-311+G(2d,p)
 ****
 1  2  3  4  5  16  17  18  19  20  21  22  23  24  25 0
 3-21G
 ****
 27  28  30  31  32  35  37  42  43  44  45  46  47 0
 3-21G
 ****
 48  49 0
 3-21G
 ****


