%nproc=1
%NoSave
%Mem=1900MB
#P OB98/GEN NMR

erre ene a

0 1
  C      -61.073     751.452     106.012
  O      -60.370     752.589     105.540
  P      -59.404     753.411     106.511
  C      -61.121     755.049     107.512
  O      -60.310     753.896     107.747
  C      -60.801     756.136     108.534
  O      -61.116     755.700     109.878
  C      -59.325     756.510     108.592
  O      -58.771     757.144     107.448
  C      -59.278     757.282     109.902
  O      -59.712     758.628     109.741
  C      -60.277     756.482     110.771
  N      -59.602     755.636     111.764
  C      -59.021     756.310     112.840
  O      -59.059     757.533     112.971
  N      -58.370     755.525     113.740
  C      -58.198     754.172     113.658
  O      -57.549     753.537     114.473
  C      -58.810     753.519     112.485
  C      -59.474     754.271     111.607
  O      -58.608     754.489     105.858
  O      -58.503     752.261     107.202
  H      -59.262     758.990     108.950
  H      -59.010     751.599     107.699
  H      -57.925     755.980     114.527
  H      -58.704     752.441     112.400
  H      -59.937     753.815     110.741
  H      -60.950     757.164     111.306
  H      -58.257     757.322     110.308
  H      -58.741     755.595     108.741
  H      -61.437     757.011     108.317
  H      -62.175     754.770     107.612
  H      -60.966     755.407     106.491
  P      -57.188     757.197     107.169
  C      -56.450     759.388     108.339
  O      -56.485     757.971     108.380
  O      -56.784     757.560     105.780
  O      -56.759     755.673     107.462
  H      -56.002     755.443     106.891
  H      -55.898     759.738     109.208
  H      -57.461     759.798     108.371
  H      -55.935     759.736     107.438
  H      -61.662     751.042     105.218
  H      -61.713     751.738     106.820
  H      -60.374     750.717     106.353

 3  4  5  6  7  8  9  10  11  12  13  23  28  29  30  31  32 0
 6-311+G(2d,p)
 ****
 33  34 0
 6-311+G(2d,p)
 ****
 1  2  14  15  16  17  18  19  20  21  22  24  25  26  27 0
 3-21G
 ****
 35  36  37  38  39  40  41  42  43  44  45 0
 3-21G
 ****


