%nproc=1
%NoSave
%Mem=1900MB
#P OB98/GEN NMR

erre ene a

0 1
  C      154.206     251.383      64.206
  O      152.814     251.523      63.861
  P      151.721     251.551      65.042
  C      151.127     249.028      65.360
  O      151.768     250.184      65.880
  C      150.652     248.095      66.493
  O      150.002     246.915      65.924
  C      151.774     247.594      67.410
  O      151.205     247.446      68.725
  C      152.100     246.229      66.823
  O      152.778     245.375      67.725
  C      150.687     245.757      66.446
  N      150.665     244.659      65.476
  C      150.287     243.395      65.929
  O      150.031     243.129      67.102
  N      150.237     242.412      64.974
  C      150.558     242.551      63.653
  O      150.521     241.619      62.856
  C      150.976     243.896      63.240
  C      151.014     244.871      64.151
  O      150.352     251.403      64.222
  O      151.700     252.798      65.863
  H      153.678     245.731      67.853
  H      149.698     252.050      64.553
  H      149.946     241.498      65.281
  H      151.236     244.049      62.200
  H      151.304     245.875      63.866
  H      150.150     245.447      67.353
  H      152.739     246.360      65.940
  H      152.639     248.270      67.441
  H      149.887     248.628      67.070
  H      151.828     248.485      64.717
  H      150.271     249.342      64.747
  P      151.673     248.459      69.876
  C      153.887     247.252      70.567
  O      153.270     248.376      69.975
  O      151.174     247.662      71.179
  O      151.080     249.834      69.771
  H      151.408     246.719      71.146
  H      153.390     246.321      70.269
  H      153.862     247.348      71.654
  H      154.930     247.206      70.237
  H      154.796     251.382      63.314
  H      154.352     250.462      64.731
  H      154.503     252.200      64.829

 3  4  5  6  7  8  9  10  11  12  13  23  28  29  30  31  32 0
 6-311+G(2d,p)
 ****
 33  34 0
 6-311+G(2d,p)
 ****
 1  2  14  15  16  17  18  19  20  21  22  24  25  26 0
 3-21G
 ****
 27  35  36  37  38  39  40  41  42  43  44  45 0
 3-21G
 ****


