%nproc=1
%NoSave
%Mem=1900MB
#P OB98/GEN NMR

erre ene a

0 1
  C     -371.921     240.077      11.679
  O     -372.828     239.009      11.490
  H     -372.475     241.013      11.687
  H     -371.187     240.104      10.863
  H     -371.393     239.971      12.638
  P     -372.245     237.517      11.438
  C     -371.442     237.704       8.991
  O     -372.325     237.063       9.903
  C     -371.393     236.929       7.675
  O     -370.818     235.630       7.871
  C     -372.779     236.710       7.046
  O     -373.198     237.872       6.348
  C     -372.479     235.530       6.123
  O     -371.782     236.002       4.955
  C     -371.533     234.685       7.000
  N     -373.828     230.168       7.099
  C     -373.315     230.880       6.027
  N     -373.479     230.325       4.806
  N     -372.721     232.036       6.140
  C     -372.691     232.502       7.419
  C     -373.182     231.889       8.562
  C     -373.776     230.572       8.422
  O     -374.233     229.899       9.350
  N     -373.027     232.690       9.658
  C     -372.412     233.760       9.206
  N     -372.202     233.713       7.839
  O     -372.859     236.527      12.401
  O     -370.676     237.697      11.692
  H     -371.002     236.493       5.269
  H     -370.458     237.614      12.631
  H     -374.287     229.287       6.939
  H     -372.099     234.606       9.806
  H     -370.781     234.153       6.412
  H     -373.370     235.012       5.791
  H     -374.166     229.598       4.640
  H     -373.514     236.387       7.787
  H     -373.164     230.858       4.006
  H     -370.746     237.478       6.981
  H     -370.447     237.710       9.451
  H     -371.764     238.732       8.806
  P     -374.626     238.557       6.650
  C     -375.872     237.223       4.824
  O     -375.417     238.486       5.258
  O     -374.560     239.896       7.272
  O     -375.403     237.465       7.542
  H     -375.231     237.557       8.510
  H     -376.378     237.329       3.887
  H     -376.546     236.818       5.550
  H     -375.037     236.564       4.706

 6  7  8  9  10  11  12  13  14  15  26  29  33  34 0
 6-311+G(2d,p)
 ****
 36  38  39  40  41 0
 6-311+G(2d,p)
 ****
 1  2  3  4  5  16  17  18  19  20  21  22  23  24  25 0
 3-21G
 ****
 27  28  30  31  32  35  37  42  43  44  45  46  47 0
 3-21G
 ****
 48  49 0
 3-21G
 ****


