%nproc=1
%NoSave
%Mem=1900MB
#P OB98/GEN NMR

erre ene a

0 1
  C      -90.993     382.216    -130.257
  O      -89.900     382.660    -129.482
  H      -91.890     382.205    -129.630
  H      -90.802     381.203    -130.616
  H      -91.168     382.887    -131.106
  P      -88.555     383.056    -130.268
  C      -87.726     384.785    -128.520
  O      -87.491     383.542    -129.163
  C      -87.057     384.806    -127.147
  O      -87.699     383.830    -126.286
  C      -85.554     384.470    -127.185
  O      -84.868     385.296    -126.233
  C      -85.502     383.022    -126.725
  O      -84.242     382.670    -126.146
  C      -86.675     382.975    -125.747
  N      -85.664     378.508    -123.640
  C      -84.996     379.718    -123.537
  N      -83.883     379.731    -122.765
  N      -85.386     380.810    -124.141
  C      -86.529     380.647    -124.856
  C      -87.279     379.505    -125.038
  C      -86.818     378.299    -124.389
  O      -87.350     377.195    -124.458
  N      -88.355     379.743    -125.863
  C      -88.257     381.021    -126.170
  N      -87.166     381.618    -125.578
  O      -88.960     384.408    -131.025
  O      -88.048     382.024    -131.223
  H      -83.544     382.968    -126.767
  H      -88.932     384.267    -131.986
  H      -85.308     377.690    -123.163
  H      -88.932     381.566    -126.823
  H      -86.402     383.350    -124.755
  H      -85.680     382.358    -127.582
  H      -83.559     378.950    -122.232
  H      -85.107     384.604    -128.171
  H      -83.408     380.620    -122.644
  H      -87.220     385.795    -126.690
  H      -88.808     384.915    -128.399
  H      -87.329     385.592    -129.140
  P      -84.124     386.605    -126.809
  C      -85.299     388.219    -125.160
  O      -84.064     387.707    -125.640
  O      -85.185     387.198    -127.847
  O      -82.819     386.306    -127.475
  H      -84.884     387.057    -128.762
  H      -85.112     388.938    -124.390
  H      -85.888     387.418    -124.765
  H      -85.828     388.687    -125.964

 6  7  8  9  10  11  12  13  14  15  26  29  33  34 0
 6-311+G(2d,p)
 ****
 36  38  39  40  41 0
 6-311+G(2d,p)
 ****
 1  2  3  4  5  16  17  18  19  20  21  22  23  24  25 0
 3-21G
 ****
 27  28  30  31  32  35  37  42  43  44  45  46  47 0
 3-21G
 ****
 48  49 0
 3-21G
 ****


