%nproc=1
%NoSave
%Mem=1900MB
#P OB98/GEN NMR

erre ene a

0 1
  C       66.269    -605.338    -184.743
  O       65.791    -605.738    -183.468
  H       67.226    -605.829    -184.928
  H       66.410    -604.254    -184.768
  H       65.560    -605.640    -185.518
  P       64.401    -605.098    -182.986
  C       65.698    -604.031    -181.009
  O       64.600    -604.848    -181.410
  C       65.617    -603.732    -179.512
  O       64.406    -603.010    -179.207
  C       65.615    -604.978    -178.628
  O       66.945    -605.422    -178.406
  C       65.006    -604.413    -177.353
  O       66.015    -603.719    -176.589
  C       63.967    -603.411    -177.881
  N       59.837    -604.901    -175.224
  C       61.092    -604.637    -174.835
  N       62.158    -604.300    -175.598
  C       61.810    -604.234    -176.902
  C       60.554    -604.479    -177.442
  C       59.533    -604.821    -176.543
  N       58.237    -605.100    -176.944
  N       60.575    -604.324    -178.817
  C       61.809    -603.932    -179.083
  N       62.603    -603.898    -177.968
  O       63.169    -605.845    -183.387
  O       64.521    -603.619    -183.593
  H       66.571    -604.404    -176.172
  H       65.426    -603.279    -183.481
  H       61.287    -604.700    -173.771
  H       62.164    -603.640    -180.075
  H       63.931    -602.495    -177.265
  H       64.600    -605.191    -176.700
  H       64.963    -605.753    -179.021
  H       66.458    -603.073    -179.256
  H       65.691    -603.092    -181.582
  H       57.627    -605.518    -176.267
  H       58.057    -605.164    -177.943
  H       66.617    -604.572    -181.252
  P       67.404    -606.893    -178.862
  C       69.050    -607.971    -177.210
  O       68.899    -607.059    -178.286
  O       67.230    -607.176    -180.315
  O       66.557    -607.875    -177.931
  H       66.560    -608.782    -178.313
  H       70.077    -608.001    -176.910
  H       68.741    -608.946    -177.523
  H       68.446    -607.653    -176.386

 6  7  8  9  10  11  12  13  14  15  25  28  32  33  34  35 0
 6-311+G(2d,p)
 ****
 36  39  40 0
 6-311+G(2d,p)
 ****
 1  2  3  4  5  16  17  18  19  20  21  22  23  24 0
 3-21G
 ****
 26  27  29  30  31  37  38  41  42  43  44  45  46  47 0
 3-21G
 ****
 48 0
 3-21G
 ****


