%nproc=1
%NoSave
%Mem=1900MB
#P OB98/GEN NMR

erre ene a

0 1
  C      -20.710     450.347    1189.432
  O      -19.437     450.386    1190.039
  H      -21.102     449.334    1189.505
  H      -20.640     450.625    1188.379
  H      -21.392     451.025    1189.955
  P      -18.665     451.794    1190.010
  C      -20.469     453.165    1191.259
  O      -19.839     452.894    1190.017
  C      -20.492     454.672    1191.531
  O      -19.180     455.144    1191.881
  C      -20.944     455.513    1190.345
  O      -22.366     455.561    1190.281
  C      -20.363     456.865    1190.714
  O      -21.221     457.524    1191.667
  C      -19.031     456.493    1191.380
  N      -14.328     458.470    1190.811
  C      -15.307     458.739    1191.697
  N      -16.561     458.214    1191.759
  C      -16.740     457.309    1190.780
  C      -15.830     456.940    1189.797
  C      -14.568     457.554    1189.851
  N      -13.567     457.278    1188.942
  N      -16.375     455.988    1188.961
  C      -17.568     455.747    1189.458
  N      -17.851     456.557    1190.535
  O      -17.630     451.946    1188.943
  O      -18.109     451.875    1191.509
  H      -20.785     458.372    1191.895
  H      -18.773     451.550    1192.139
  H      -15.073     459.477    1192.458
  H      -18.262     454.998    1189.089
  H      -18.819     457.128    1192.255
  H      -20.266     457.530    1189.857
  H      -20.499     455.167    1189.404
  H      -21.136     454.840    1192.410
  H      -19.944     452.657    1192.079
  H      -12.768     457.900    1188.925
  H      -13.791     456.697    1188.144
  H      -21.488     452.768    1191.210
  P      -23.115     455.992    1188.930
  C      -22.640     453.696    1187.874
  O      -22.444     455.105    1187.774
  O      -23.158     457.462    1188.691
  O      -24.575     455.353    1189.073
  H      -25.189     455.765    1188.441
  H      -22.152     453.209    1187.056
  H      -23.687     453.479    1187.845
  H      -22.228     453.343    1188.796

 6  7  8  9  10  11  12  13  14  15  25  28  32  33  34  35 0
 6-311+G(2d,p)
 ****
 36  39  40 0
 6-311+G(2d,p)
 ****
 1  2  3  4  5  16  17  18  19  20  21  22  23  24 0
 3-21G
 ****
 26  27  29  30  31  37  38  41  42  43  44  45  46  47 0
 3-21G
 ****
 48 0
 3-21G
 ****


