%nproc=1
%NoSave
%Mem=1900MB
#P OB98/GEN NMR

erre ene a

0 1
  C       59.890    -105.077      -6.013
  O       58.625    -105.593      -6.420
  P       57.680    -106.515      -5.526
  C       56.023    -104.561      -4.932
  O       56.223    -105.859      -5.477
  C       54.928    -103.802      -5.699
  O       55.366    -103.619      -7.079
  C       53.602    -104.571      -5.743
  O       52.459    -103.746      -5.539
  C       53.689    -105.321      -7.061
  O       52.429    -105.755      -7.550
  C       54.447    -104.330      -7.941
  N       55.017    -104.767     -12.996
  C       54.046    -104.097     -12.280
  N       53.088    -103.471     -12.996
  N       54.006    -104.057     -10.974
  C       54.975    -104.788     -10.380
  C       55.983    -105.507     -10.981
  C       56.048    -105.503     -12.426
  O       56.900    -106.064     -13.111
  N       56.788    -106.113     -10.049
  C       56.256    -105.778      -8.890
  N       55.156    -104.965      -9.039
  O       58.254    -106.974      -4.228
  O       57.448    -107.824      -6.442
  H       51.933    -106.134      -6.801
  H       57.350    -108.576      -5.824
  H       55.013    -104.746     -14.001
  H       56.632    -106.082      -7.920
  H       53.783    -103.595      -8.400
  H       54.293    -106.222      -6.889
  H       52.989    -103.564     -13.995
  H       53.544    -105.294      -4.921
  H       52.264    -103.173     -12.471
  H       54.805    -102.812      -5.248
  H       56.980    -104.039      -5.037
  H       55.793    -104.619      -3.867
  P       51.646    -103.482      -4.190
  C       52.702    -101.332      -3.273
  O       51.587    -101.903      -3.931
  O       52.605    -104.000      -3.019
  O       50.321    -104.170      -4.115
  H       52.171    -104.732      -2.536
  H       52.429    -100.331      -2.924
  H       53.537    -101.248      -3.973
  H       52.998    -101.940      -2.413
  H       60.308    -104.492      -6.805
  H       60.549    -105.888      -5.783
  H       59.763    -104.464      -5.145

 3  4  5  6  7  8  9  10  11  12  23  26  30  31 0
 6-311+G(2d,p)
 ****
 33  35  36  37  38 0
 6-311+G(2d,p)
 ****
 1  2  13  14  15  16  17  18  19  20  21  22  24  25 0
 3-21G
 ****
 27  28  29  32  34  39  40  41  42  43  44  45  46  47  48  49 0
 3-21G
 ****


