%nproc=1
%NoSave
%Mem=1900MB
#P OB98/GEN NMR

erre ene a

0 1
  C      213.406     290.326    -334.488
  O      212.227     289.533    -334.311
  P      212.182     288.440    -333.139
  C      210.160     289.398    -331.843
  O      211.552     289.099    -331.824
  C      209.506     288.932    -330.533
  O      210.119     289.570    -329.383
  C      208.035     289.302    -330.446
  O      207.154     288.616    -331.311
  C      207.763     289.197    -328.954
  O      207.503     287.845    -328.560
  C      209.105     289.685    -328.361
  N      209.025     291.052    -327.844
  C      208.692     291.183    -326.498
  O      208.432     290.226    -325.774
  N      208.635     292.464    -326.018
  C      208.836     293.603    -326.745
  O      208.749     294.724    -326.269
  C      209.158     293.404    -328.166
  C      209.237     292.160    -328.643
  O      213.441     287.666    -332.929
  O      211.004     287.457    -333.627
  H      206.733     287.540    -329.073
  H      211.285     286.540    -333.440
  H      208.403     292.576    -325.044
  H      209.319     294.285    -328.772
  H      209.472     291.991    -329.690
  H      209.420     289.038    -327.534
  H      206.891     289.788    -328.660
  H      207.935     290.364    -330.709
  H      209.658     287.857    -330.435
  H      209.688     288.905    -332.694
  H      210.027     290.474    -331.990
  P      205.870     289.300    -331.990
  C      207.340     290.362    -333.842
  O      206.367     290.563    -332.845
  O      204.658     289.487    -331.133
  O      205.522     288.244    -333.149
  H      204.553     288.238    -333.275
  H      207.572     291.324    -334.310
  H      206.971     289.679    -334.612
  H      208.260     289.961    -333.404
  H      213.264     290.998    -335.308
  H      214.239     289.686    -334.691
  H      213.596     290.886    -333.597

 3  4  5  6  7  8  9  10  11  12  13  23  28  29  30  31  32 0
 6-311+G(2d,p)
 ****
 33  34 0
 6-311+G(2d,p)
 ****
 1  2  14  15  16  17  18  19  20  21  22  24  25  26  27 0
 3-21G
 ****
 35  36  37  38  39  40  41  42  43  44  45 0
 3-21G
 ****


