%nproc=1
%NoSave
%Mem=1900MB
#P OB98/GEN NMR

erre ene a

0 1
  C     -193.406      -9.136    -164.826
  O     -194.091      -8.675    -165.976
  P     -193.832      -9.421    -167.373
  C     -195.142     -11.496    -166.432
  O     -193.990     -10.993    -167.085
  C     -195.525     -12.863    -167.009
  O     -196.568     -13.447    -166.181
  C     -196.052     -12.820    -168.448
  O     -195.604     -14.017    -169.101
  C     -197.557     -12.848    -168.258
  O     -198.247     -13.302    -169.411
  C     -197.674     -13.778    -167.045
  N     -198.942     -13.643    -166.328
  C     -200.060     -14.280    -166.858
  O     -200.049     -14.930    -167.903
  N     -201.226     -14.123    -166.152
  C     -201.393     -13.355    -165.036
  O     -202.464     -13.235    -164.455
  C     -200.189     -12.666    -164.551
  C     -199.038     -12.848    -165.200
  O     -192.257      -9.215    -167.546
  O     -194.664      -8.902    -168.495
  H     -191.774      -9.246    -166.704
  H     -198.080     -12.668    -170.133
  H     -202.041     -14.608    -166.499
  H     -200.285     -12.035    -163.675
  H     -198.138     -12.351    -164.862
  H     -197.538     -14.820    -167.358
  H     -197.912     -11.838    -168.024
  H     -195.698     -11.943    -168.997
  H     -194.651     -13.524    -166.939
  H     -195.972     -10.805    -166.574
  H     -194.944     -11.569    -165.357
  P     -195.182     -13.923    -170.652
  C     -192.623     -13.616    -170.187
  O     -193.818     -13.090    -170.727
  O     -196.273     -12.870    -171.177
  O     -195.225     -15.217    -171.395
  H     -196.345     -12.084    -170.612
  H     -191.777     -13.080    -170.623
  H     -192.518     -14.678    -170.411
  H     -192.615     -13.465    -169.103
  H     -193.684      -8.540    -163.982
  H     -192.351      -9.059    -164.985
  H     -193.665     -10.158    -164.642

 3  4  5  6  7  8  9  10  11  12  13  24  28  29  30  31  32 0
 6-311+G(2d,p)
 ****
 33  34 0
 6-311+G(2d,p)
 ****
 1  2  14  15  16  17  18  19  20  21  22  23  25  26  27 0
 3-21G
 ****
 35  36  37  38  39  40  41  42  43  44  45 0
 3-21G
 ****


