%nproc=1
%NoSave
%Mem=1900MB
#P OB98/GEN NMR

erre ene a

0 1
  C     -270.344    1079.956    -396.420
  O     -269.343    1079.788    -397.409
  P     -269.765    1079.623    -398.947
  C     -269.562    1077.052    -398.939
  O     -269.089    1078.280    -399.505
  C     -269.410    1075.905    -399.941
  O     -270.138    1076.189    -401.154
  C     -267.964    1075.663    -400.383
  O     -267.248    1074.982    -399.375
  C     -268.173    1074.863    -401.664
  O     -268.433    1073.477    -401.371
  C     -269.442    1075.532    -402.250
  N     -267.563    1076.073    -406.950
  C     -267.574    1075.020    -406.101
  N     -268.060    1074.972    -404.848
  C     -268.550    1076.166    -404.475
  C     -268.572    1077.337    -405.222
  C     -268.067    1077.267    -406.531
  N     -268.088    1078.311    -407.424
  N     -269.135    1078.369    -404.479
  C     -269.429    1077.833    -403.328
  N     -269.166    1076.485    -403.298
  O     -269.569    1080.838    -399.800
  O     -271.322    1079.234    -398.880
  H     -269.245    1073.432    -400.845
  H     -271.851    1079.923    -399.345
  H     -267.161    1074.102    -406.496
  H     -269.849    1078.355    -402.472
  H     -270.143    1074.792    -402.645
  H     -267.311    1074.911    -402.333
  H     -267.483    1076.611    -400.621
  H     -269.846    1075.001    -399.492
  H     -270.626    1077.185    -398.693
  H     -267.841    1078.103    -408.388
  H     -268.729    1079.086    -407.247
  H     -269.005    1076.830    -398.033
  P     -265.906    1075.621    -398.772
  C     -264.978    1073.398    -397.862
  O     -265.457    1074.696    -397.538
  O     -265.954    1077.083    -398.482
  O     -264.793    1075.280    -399.891
  H     -264.133    1075.994    -399.904
  H     -265.830    1072.748    -398.082
  H     -264.446    1072.991    -397.019
  H     -264.307    1073.434    -398.728
  H     -269.883    1080.050    -395.459
  H     -270.994    1079.106    -396.423
  H     -270.910    1080.839    -396.632

 3  4  5  6  7  8  9  10  11  12  22  25  29  30  31  32 0
 6-311+G(2d,p)
 ****
 33  36  37 0
 6-311+G(2d,p)
 ****
 1  2  13  14  15  16  17  18  19  20  21  23  24  26 0
 3-21G
 ****
 27  28  34  35  38  39  40  41  42  43  44  45  46  47  48 0
 3-21G
 ****


