%nproc=1
%NoSave
%Mem=1900MB
#P OB98/GEN NMR

erre ene a

0 1
  C     -784.086     337.688    -894.090
  O     -783.950     336.376    -893.600
  H     -784.671     338.279    -893.370
  H     -784.607     337.707    -895.050
  H     -783.102     338.171    -894.190
  P     -783.145     335.348    -894.530
  C     -785.161     333.708    -894.420
  O     -784.277     334.480    -895.260
  C     -786.463     333.435    -895.160
  O     -787.355     334.566    -895.060
  C     -786.310     333.138    -896.630
  O     -785.970     331.759    -896.840
  C     -787.713     333.447    -897.150
  O     -788.584     332.298    -896.890
  C     -788.140     334.639    -896.270
  N     -790.404     338.385    -898.960
  C     -790.809     337.104    -898.670
  N     -790.125     336.161    -897.990
  C     -788.918     336.612    -897.600
  C     -788.381     337.883    -897.810
  C     -789.170     338.777    -898.540
  N     -788.773     340.059    -898.850
  N     -787.127     337.965    -897.280
  C     -786.932     336.833    -896.670
  N     -787.971     335.945    -896.870
  O     -782.051     334.576    -893.870
  O     -782.649     336.325    -895.710
  H     -789.507     332.619    -897.040
  H     -783.364     336.949    -895.950
  H     -791.780     336.829    -899.020
  H     -786.065     336.567    -896.070
  H     -789.203     334.561    -895.970
  H     -787.761     333.621    -898.220
  H     -785.610     333.822    -897.130
  H     -786.959     332.569    -894.640
  H     -785.367     334.253    -893.490
  H     -789.318     340.565    -899.500
  H     -787.812     340.317    -898.650
  H     -784.647     332.780    -894.180
  P     -785.595     331.219    -898.310
  C     -787.255     329.248    -898.500
  O     -786.936     330.593    -898.890
  O     -784.402     330.300    -898.340
  O     -785.376     332.544    -899.180
  H     -784.884     332.331    -900.000
  H     -788.176     328.953    -898.958
  H     -787.354     329.199    -897.436
  H     -786.473     328.590    -898.816

 6  7  8  9  10  11  12  13  14  15  25  28  32  33  34  35 0
 6-311+G(2d,p)
 ****
 36  39  40 0
 6-311+G(2d,p)
 ****
 1  2  3  4  5  16  17  18  19  20  21  22  23  24 0
 3-21G
 ****
 26  27  29  30  31  37  38  41  42  43  44  45  46  47 0
 3-21G
 ****
 48 0
 3-21G
 ****


