%nproc=1
%NoSave
%Mem=1900MB
#P OB98/GEN NMR

erre ene a

0 1
  C     -100.514     101.624    -303.993
  O     -100.643     102.555    -305.054
  H     -101.195     101.913    -303.188
  H      -99.490     101.628    -303.614
  H     -100.780     100.618    -304.338
  P      -99.750     102.278    -306.359
  C     -100.807     100.325    -307.733
  O     -100.762     101.724    -307.478
  C     -101.943     100.002    -308.709
  O     -103.138      99.661    -307.940
  C     -102.321     101.183    -309.624
  O     -102.810     100.648    -310.872
  C     -103.481     101.808    -308.862
  O     -104.216     102.669    -309.698
  C     -104.189     100.542    -308.384
  N     -108.896     102.201    -307.314
  C     -108.261     101.984    -308.489
  N     -107.006     101.531    -308.691
  C     -106.404     101.268    -307.515
  C     -106.921     101.443    -306.241
  C     -108.233     101.939    -306.159
  N     -108.878     102.185    -304.967
  N     -105.984     101.089    -305.283
  C     -104.925     100.702    -305.969
  N     -105.131     100.795    -307.319
  O      -98.893     100.987    -305.949
  O      -98.885     103.411    -306.802
  H     -104.896     103.158    -309.191
  H      -98.035     101.267    -305.570
  H     -108.835     102.203    -309.388
  H     -103.985     100.361    -305.549
  H     -104.733     100.040    -309.198
  H     -103.118     102.402    -308.014
  H     -101.492     101.866    -309.820
  H     -101.680      99.111    -309.295
  H     -100.969      99.802    -306.784
  H      -99.855     100.004    -308.166
  H     -109.807     102.573    -304.998
  H     -108.384     102.030    -304.103
  P     -102.471     101.423    -312.242
  C      -99.902     101.031    -312.479
  O     -101.207     100.751    -312.967
  O     -101.858     102.804    -311.698
  O     -103.643     101.695    -313.135
  H     -102.249     103.552    -312.188
  H      -99.180     100.508    -313.070
  H      -99.826     100.713    -311.460
  H      -99.717     102.083    -312.539

 6  7  8  9  10  11  12  13  14  15  25  28  32  33  34  35 0
 6-311+G(2d,p)
 ****
 36  37  40 0
 6-311+G(2d,p)
 ****
 1  2  3  4  5  16  17  18  19  20  21  22  23  24 0
 3-21G
 ****
 26  27  29  30  31  38  39 41  42  43  44  45  46  47  48 0
 3-21G
 ****


