%nproc=1
%NoSave
%Mem=1900MB
#P OB98/GEN NMR

erre ene a

0 1
  C     -124.114     -59.695      11.148
  O     -124.401     -61.072      10.966
  P     -123.237     -62.120      10.609
  C     -124.626     -62.499       8.464
  O     -123.331     -62.319       9.022
  C     -124.810     -61.568       7.268
  O     -124.663     -60.199       7.694
  C     -123.793     -61.767       6.152
  O     -124.095     -62.921       5.384
  C     -123.912     -60.438       5.414
  O     -125.065     -60.442       4.559
  C     -124.128     -59.449       6.578
  N     -122.909     -58.742       6.956
  C     -122.782     -57.428       6.498
  O     -123.667     -56.903       5.821
  N     -121.664     -56.713       6.848
  C     -120.740     -57.269       7.571
  N     -119.688     -56.492       7.945
  C     -120.808     -58.668       8.028
  C     -121.909     -59.337       7.692
  O     -123.269     -63.384      11.398
  O     -121.884     -61.289      10.774
  H     -124.875     -61.068       3.834
  H     -121.517     -61.310      11.692
  H     -120.007     -59.090       8.616
  H     -122.045     -60.363       8.005
  H     -124.895     -58.712       6.312
  H     -123.038     -60.201       4.799
  H     -122.784     -61.868       6.568
  H     -125.831     -61.701       6.884
  H     -119.768     -55.498       7.760
  H     -125.372     -62.254       9.227
  H     -119.093     -56.748       8.722
  H     -124.751     -63.547       8.173
  P     -123.140     -64.197       5.556
  C     -122.444     -63.890       3.077
  O     -122.017     -64.061       4.415
  O     -124.059     -65.412       5.069
  O     -122.623     -64.398       6.941
  H     -124.417     -65.895       5.836
  H     -121.586     -63.580       2.476
  H     -123.217     -63.120       3.010
  H     -122.825     -64.836       2.683
  H     -125.017     -59.170      11.378
  H     -123.689     -59.298      10.250
  H     -123.419     -59.579      11.954

 3  4  5  6  7  8  9  10  11  12  13  23  27  28  29  30  32 0
 6-311+G(2d,p)
 ****
 34  35 0
 6-311+G(2d,p)
 ****
 1  2  14  15  16  17  18  19  20  21  22  24  25  26 0
 3-21G
 ****
 31  33  36  37  38  39  40  41  42  43  44  45  46 0
 3-21G
 ****


