%nproc=1
%NoSave
%Mem=1900MB
#P OB98/GEN NMR

erre ene a

0 1
  C      132.333    -468.677      -5.338
  O      131.388    -467.891      -4.643
  H      132.773    -469.394      -4.639
  H      133.130    -468.050      -5.743
  H      131.849    -469.235      -6.147
  P      130.596    -466.751      -5.450
  C      128.360    -467.510      -4.385
  O      129.298    -466.458      -4.546
  C      127.481    -467.249      -3.165
  O      128.211    -467.442      -1.936
  C      126.930    -465.830      -3.060
  O      125.887    -465.549      -3.980
  C      126.443    -465.842      -1.621
  O      125.213    -466.582      -1.533
  C      127.604    -466.590      -0.926
  N      128.598    -465.685      -0.349
  C      128.762    -465.739       1.042
  O      128.086    -466.506       1.725
  N      129.665    -464.888       1.636
  C      130.329    -464.041       0.907
  N      131.206    -463.216       1.551
  C      130.172    -463.941      -0.559
  C      129.306    -464.780      -1.113
  O      130.323    -467.042      -6.892
  O      131.459    -465.424      -5.220
  H      124.587    -466.165      -2.147
  H      131.018    -464.687      -5.709
  H      130.728    -463.197      -1.112
  H      129.125    -464.761      -2.185
  H      127.222    -467.250      -0.134
  H      126.257    -464.842      -1.223
  H      127.736    -465.090      -3.148
  H      126.670    -467.992      -3.177
  H      131.292    -463.310       2.552
  H      128.910    -468.448      -4.279
  H      131.710    -462.479       1.071
  H      127.712    -467.570      -5.269
  P      125.730    -464.021      -4.461
  C      124.084    -464.774      -6.352
  O      124.323    -463.935      -5.230
  O      126.820    -463.895      -5.625
  O      125.911    -463.000      -3.383
  H      127.639    -463.477      -5.288
  H      123.104    -464.584      -6.737
  H      124.158    -465.799      -6.053
  H      124.811    -464.571      -7.111

 6  7  8  9  10  11  12  13  14  15  16  26  30  31  32  33  35 0
 6-311+G(2d,p)
 ****
 37  38 0
 6-311+G(2d,p)
 ****
 1  2  3  4  5  17  18  19  20  21  22  23  24  25 0
 3-21G
 ****
 27  28  29  34  36  39  40  41  42  43  44  45  46 0
 3-21G
 ****


