%nproc=1
%NoSave
%Mem=1900MB
#P OB98/GEN NMR

erre ene a

0 1
  C     -247.061     -99.685     400.570
  O     -246.348    -100.832     400.140
  P     -246.765    -101.613     398.801
  C     -248.886    -102.953     398.179
  O     -248.026    -102.508     399.219
  C     -249.303    -104.399     398.432
  O     -249.855    -104.518     399.756
  C     -250.378    -104.920     397.486
  O     -249.832    -105.230     396.213
  C     -250.908    -106.108     398.279
  O     -250.033    -107.237     398.136
  C     -250.843    -105.576     399.727
  N     -252.132    -105.107     400.219
  C     -253.021    -106.086     400.668
  O     -252.715    -107.277     400.658
  N     -254.241    -105.690     401.164
  C     -254.555    -104.433     401.184
  N     -255.746    -104.095     401.747
  C     -253.671    -103.372     400.665
  C     -252.489    -103.776     400.207
  O     -245.658    -102.365     398.143
  O     -247.427    -100.497     397.873
  H     -250.362    -107.926     398.747
  H     -246.775    -100.020     397.300
  H     -253.984    -102.338     400.690
  H     -251.774    -103.056     399.829
  H     -250.473    -106.357     400.400
  H     -251.913    -106.422     397.977
  H     -251.173    -104.175     397.360
  H     -248.407    -105.030     398.377
  H     -256.238    -104.825     402.244
  H     -248.342    -102.895     397.231
  H     -255.934    -103.147     402.056
  H     -249.757    -102.294     398.125
  P     -250.819    -105.181     394.951
  C     -253.006    -106.434     394.341
  O     -251.841    -106.406     395.147
  O     -249.881    -105.634     393.735
  O     -251.451    -103.850     394.714
  H     -249.597    -104.856     393.221
  H     -253.458    -107.425     394.424
  H     -252.758    -106.248     393.294
  H     -253.722    -105.690     394.697
  H     -246.629     -99.315     401.476
  H     -248.084     -99.945     400.743
  H     -247.008     -98.929     399.815

 3  4  5  6  7  8  9  10  11  12  13  23  27  28  29  30  32 0
 6-311+G(2d,p)
 ****
 34  35 0
 6-311+G(2d,p)
 ****
 1  2  14  15  16  17  18  19  20  21  22  24  25  26 0
 3-21G
 ****
 31  33  36  37  38  39  40  41  42  43  44  45  46 0
 3-21G
 ****


