%nproc=1
%NoSave
%Mem=1900MB
#P OB98/GEN NMR

erre ene a

0 1
  C      -62.495    -212.586     726.833
  O      -62.568    -211.913     725.588
  H      -61.625    -213.245     726.824
  H      -63.394    -213.193     726.985
  H      -62.387    -211.863     727.643
  P      -63.811    -210.920     725.379
  C      -66.378    -211.221     725.544
  O      -65.105    -211.857     725.538
  C      -67.426    -212.130     724.909
  O      -67.407    -213.425     725.531
  C      -68.859    -211.622     725.045
  O      -69.146    -210.675     724.028
  C      -69.646    -212.906     724.842
  O      -69.753    -213.192     723.435
  C      -68.756    -213.956     725.530
  N      -70.866    -217.499     728.587
  C      -70.806    -217.399     727.240
  N      -70.277    -216.402     726.495
  C      -69.762    -215.447     727.279
  C      -69.750    -215.411     728.669
  C      -70.332    -216.508     729.333
  N      -70.394    -216.609     730.708
  N      -69.143    -214.264     729.130
  C      -68.738    -213.646     728.039
  N      -69.120    -214.300     726.894
  O      -63.758    -210.065     724.157
  O      -63.796    -210.119     726.769
  H      -70.287    -212.475     723.046
  H      -63.605    -210.723     727.508
  H      -71.240    -218.226     726.688
  H      -68.145    -212.732     728.025
  H      -68.735    -214.901     724.971
  H      -70.664    -212.839     725.233
  H      -69.059    -211.226     726.049
  H      -67.166    -212.268     723.856
  H      -66.328    -210.272     725.001
  H      -70.990    -217.325     731.086
  H      -70.111    -215.804     731.249
  H      -66.634    -211.007     726.587
  P      -70.209    -209.495     724.267
  C      -72.772    -209.332     724.213
  O      -71.640    -210.178     724.038
  O      -69.946    -208.259     723.476
  O      -70.174    -209.243     725.844
  H      -70.578    -208.381     726.056
  H      -73.666    -209.892     724.036
  H      -72.718    -208.517     723.522
  H      -72.782    -208.951     725.213

 6  7  8  9  10  11  12  13  14  15  25  28  32  33  34  35 0
 6-311+G(2d,p)
 ****
 36  39  40 0
 6-311+G(2d,p)
 ****
 1  2  3  4  5  16  17  18  19  20  21  22  23  24 0
 3-21G
 ****
 26  27  29  30  31  37  38  41  42  43  44  45  46  47 0
 3-21G
 ****
 48 0
 3-21G
 ****


