%nproc=1
%NoSave
%Mem=1900MB
#P OB98/GEN NMR

erre ene a

0 1
  C     -107.171      85.680     858.762
  O     -106.592      86.117     857.551
  H     -106.382      85.604     859.527
  H     -107.628      84.692     858.644
  H     -107.922      86.395     859.111
  P     -107.491      86.058     856.224
  C     -107.646      88.633     856.421
  O     -107.378      87.518     855.559
  C     -107.064      89.930     855.842
  O     -105.615      89.917     855.950
  C     -107.348      90.116     854.343
  O     -108.713      90.383     854.065
  C     -106.281      91.123     853.942
  O     -106.658      92.487     854.164
  C     -105.117      90.747     854.883
  N     -104.010      90.104     854.163
  C     -102.732      90.413     854.595
  O     -102.498      91.181     855.528
  N     -101.704      89.821     853.904
  C     -101.834      89.025     852.805
  O     -100.878      88.559     852.204
  C     -103.230      88.756     852.373
  C     -104.233      89.300     853.051
  O     -108.902      85.584     856.411
  O     -106.632      85.148     855.232
  H     -106.809      92.585     855.126
  H     -107.186      84.814     854.485
  H     -100.764      90.023     854.216
  H     -103.367      88.123     851.502
  H     -105.255      89.121     852.750
  H     -104.710      91.653     855.373
  H     -106.035      91.036     852.879
  H     -107.108      89.179     853.836
  H     -107.440      90.775     856.430
  H     -107.178      88.427     857.391
  H     -108.724      88.737     856.565
  P     -109.299      90.345     852.576
  C     -109.549      87.747     852.410
  O     -110.213      89.019     852.442
  O     -108.366      90.684     851.466
  O     -110.412      91.513     852.645
  H     -110.452      91.944     851.772
  H     -110.276      86.967     852.319
  H     -108.992      87.612     853.314
  H     -108.883      87.713     851.573

 6  7  8  9  10  11  12  13  14  15  16  26  31  32  33  34  35 0
 6-311+G(2d,p)
 ****
 36  37 0
 6-311+G(2d,p)
 ****
 1  2  3  4  5  17  18  19  20  21  22  23  24  25 0
 3-21G
 ****
 27  28  29  30  38  39  40  41  42  43  44  45 0
 3-21G
 ****


