%nproc=1
%NoSave
%Mem=1900MB
#P OB98/GEN NMR

erre ene a

0 1
  C     -765.184    1980.016    1459.079
  O     -764.558    1981.284    1459.021
  H     -766.100    1980.113    1459.662
  H     -764.536    1979.298    1459.559
  H     -765.441    1979.665    1458.076
  P     -763.119    1981.344    1458.297
  C     -762.388    1982.112    1460.673
  O     -762.234    1982.269    1459.275
  C     -761.221    1982.806    1461.419
  O     -759.949    1982.335    1460.910
  C     -761.203    1984.313    1461.213
  O     -762.137    1985.008    1462.037
  C     -759.759    1984.622    1461.659
  O     -759.674    1984.508    1463.115
  C     -759.030    1983.447    1460.977
  N     -758.526    1983.781    1459.613
  C     -757.585    1984.799    1459.524
  O     -757.151    1985.384    1460.551
  N     -757.104    1985.177    1458.307
  C     -757.585    1984.583    1457.245
  N     -757.077    1984.999    1456.046
  C     -758.576    1983.490    1457.247
  C     -758.990    1983.140    1458.483
  O     -763.379    1982.286    1457.030
  O     -762.516    1980.010    1457.969
  H     -758.730    1984.592    1463.320
  H     -762.513    1982.506    1456.589
  H     -758.935    1983.047    1456.366
  H     -759.751    1982.385    1458.595
  H     -758.175    1983.107    1461.580
  H     -759.401    1985.595    1461.389
  H     -761.275    1984.616    1460.177
  H     -761.290    1982.525    1462.464
  H     -756.441    1985.784    1456.043
  H     -762.395    1981.049    1460.914
  H     -757.466    1984.696    1455.124
  H     -763.339    1982.567    1461.001
  P     -763.320    1985.788    1461.275
  C     -763.120    1987.445    1463.316
  O     -763.956    1986.813    1462.360
  O     -764.442    1984.670    1461.124
  O     -762.962    1986.434    1459.957
  H     -764.951    1984.780    1460.276
  H     -763.711    1988.080    1463.942
  H     -762.380    1988.030    1462.811
  H     -762.638    1986.701    1463.916

 6  7  8  9  10  11  12  13  14  15  16  26  30  31  32  33  35 0
 6-311+G(2d,p)
 ****
 37  38 0
 6-311+G(2d,p)
 ****
 1  2  3  4  5  17  18  19  20  21  22  23  24  25 0
 3-21G
 ****
 27  28  29  34  36  39  40  41  42  43  44  45  46 0
 3-21G
 ****


