%nproc=1
%NoSave
%Mem=1900MB
#P OB98/GEN NMR

erre ene a

0 1
  C     -291.589     -99.848     146.516
  O     -292.529     -99.032     147.193
  P     -292.328     -97.442     147.096
  C     -291.247     -97.824     149.434
  O     -291.253     -97.066     148.225
  C     -291.406     -96.898     150.637
  O     -290.399     -95.871     150.606
  C     -292.734     -96.169     150.690
  O     -293.759     -97.033     151.144
  C     -292.417     -95.025     151.645
  O     -292.601     -95.430     153.012
  C     -290.923     -94.747     151.347
  N     -290.718     -93.494     150.639
  C     -289.951     -92.534     151.301
  O     -289.507     -92.767     152.430
  N     -289.740     -91.319     150.690
  C     -290.259     -91.090     149.524
  N     -290.013     -89.875     148.960
  C     -291.090     -92.071     148.798
  C     -291.288     -93.240     149.412
  O     -293.702     -96.866     147.681
  O     -292.036     -96.929     145.724
  H     -292.059     -96.238     153.123
  H     -293.888     -95.978     147.317
  H     -291.499     -91.829     147.826
  H     -291.888     -94.015     148.949
  H     -290.353     -94.702     152.286
  H     -293.066     -94.162     151.479
  H     -292.992     -95.765     149.702
  H     -291.257     -97.497     151.549
  H     -289.442     -89.220     149.485
  H     -290.296     -98.357     149.516
  H     -290.351     -89.609     148.045
  H     -292.057     -98.560     149.395
  P     -295.278     -96.591     150.884
  C     -296.141     -96.338     153.288
  O     -295.658     -95.667     152.139
  O     -296.083     -97.944     151.207
  O     -295.608     -96.047     149.536
  H     -297.025     -97.825     150.984
  H     -296.212     -95.621     154.106
  H     -295.457     -97.141     153.578
  H     -297.134     -96.746     153.088
  H     -291.840    -100.878     146.663
  H     -290.609     -99.661     146.904
  H     -291.608     -99.622     145.470

 3  4  5  6  7  8  9  10  11  12  13  21  23  27  28  29  30  32 0
 6-311+G(2d,p)
 ****
 34  35 0
 6-311+G(2d,p)
 ****
 1  2  14  15  16  17  18  19  20  22  24  25  26 0
 3-21G
 ****
 31  33  36  37  38  39  40  41  42  43  44  45  46 0
 3-21G
 ****


