%nproc=1
%NoSave
%Mem=1900MB
#P OB98/GEN NMR

erre ene a

0 1
  C     -105.295     310.737      58.765
  O     -105.297     312.048      58.238
  H     -104.970     310.046      57.983
  H     -106.301     310.452      59.087
  H     -104.599     310.664      59.605
  P     -105.779     313.249      59.183
  C     -107.969     313.866      60.408
  O     -107.287     312.906      59.607
  C     -109.351     313.346      60.795
  O     -109.255     311.997      61.298
  C     -110.046     314.162      61.883
  O     -110.660     315.314      61.328
  C     -111.057     313.150      62.388
  O     -112.156     313.055      61.458
  C     -110.239     311.846      62.362
  N     -109.976     308.710      66.349
  C     -110.920     308.787      65.341
  N     -111.956     307.926      65.424
  N     -110.860     309.641      64.350
  C     -109.806     310.482      64.434
  C     -108.816     310.516      65.391
  C     -108.857     309.528      66.446
  O     -108.028     309.408      67.341
  N     -107.965     311.574      65.193
  C     -108.408     312.148      64.093
  N     -109.532     311.527      63.596
  O     -105.603     314.631      58.631
  O     -104.960     313.036      60.541
  H     -112.608     313.917      61.457
  H     -104.127     313.540      60.532
  H     -110.078     308.035      67.091
  H     -107.956     313.007      63.610
  H     -110.856     310.975      62.119
  H     -111.480     313.417      63.358
  H     -112.136     307.352      66.238
  H     -109.362     314.418      62.700
  H     -112.690     308.006      64.727
  H     -109.963     313.305      59.884
  H     -108.057     314.784      59.818
  H     -107.391     314.086      61.312
  P     -110.640     316.728      62.094
  C     -111.512     317.553      64.385
  O     -111.434     316.479      63.467
  O     -111.136     317.880      61.291
  O     -109.136     316.882      62.602
  H     -108.536     317.271      61.919
  H     -112.066     317.246      65.247
  H     -112.004     318.383      63.922
  H     -110.525     317.843      64.680

 6  7  8  9  10  11  12  13  14  15  26  29  33  34 0
 6-311+G(2d,p)
 ****
 36  38  39  40  41 0
 6-311+G(2d,p)
 ****
 1  2  3  4  5  16  17  18  19  20  21  22  23  24  25 0
 3-21G
 ****
 27  28  30  31  32  35  37  42  43  44  45  46  47 0
 3-21G
 ****
 48  49 0
 3-21G
 ****


