%nproc=1
%NoSave
%Mem=1900MB
#P OB98/GEN NMR

erre ene a

0 1
  C      106.948     -40.036     483.763
  O      105.725     -39.906     484.452
  H      106.943     -39.349     482.912
  H      107.066     -41.054     483.384
  H      107.789     -39.778     484.417
  P      105.437     -40.833     485.733
  C      103.955     -40.478     487.798
  O      104.108     -40.224     486.409
  C      102.699     -39.798     488.347
  O      102.995     -38.404     488.645
  C      101.506     -39.822     487.377
  O      100.325     -40.226     488.065
  C      101.371     -38.367     486.941
  O      100.061     -38.037     486.499
  C      101.852     -37.643     488.203
  N      102.178     -36.246     487.947
  C      102.315     -35.424     489.071
  O      102.163     -35.896     490.203
  N      102.556     -34.092     488.888
  C      102.613     -33.600     487.687
  N      102.825     -32.266     487.578
  C      102.446     -34.430     486.472
  C      102.240     -35.729     486.669
  O      106.600     -40.992     486.656
  O      104.925     -42.221     485.127
  H       99.425     -38.292     487.201
  H      105.063     -42.934     485.793
  H      102.499     -33.973     485.491
  H      102.107     -36.412     485.838
  H      101.090     -37.685     488.997
  H      102.070     -38.173     486.117
  H      101.668     -40.479     486.523
  H      102.441     -40.265     489.307
  H      102.925     -31.737     488.437
  H      104.850     -40.109     488.322
  H      102.865     -31.775     486.700
  H      103.872     -41.561     487.947
  P       99.858     -41.747     487.844
  C       99.348     -43.550     489.641
  O       99.099     -42.233     489.172
  O      101.232     -42.562     487.860
  O       99.112     -41.959     486.570
  H      101.432     -42.895     486.966
  H       98.775     -43.727     490.527
  H      100.389     -43.659     489.862
  H       99.067     -44.256     488.888

 6  7  8  9  10  11  12  13  14  15  16  26  30  31  32  33  35 0
 6-311+G(2d,p)
 ****
 37  38 0
 6-311+G(2d,p)
 ****
 1  2  3  4  5  17  18  19  20  21  22  23  24  25 0
 3-21G
 ****
 27  28  29  34  36  39  40  41  42  43  44  45  46 0
 3-21G
 ****


