%nproc=1
%NoSave
%Mem=1900MB
#P OB98/GEN NMR

erre ene a

0 1
  C      500.763    -890.900    -532.802
  O      501.817    -891.860    -532.818
  P      502.738    -892.000    -531.508
  C      503.070    -894.570    -531.256
  O      502.371    -893.420    -530.830
  C      503.000    -895.660    -530.174
  O      503.791    -895.230    -529.042
  C      501.583    -895.960    -529.664
  O      501.555    -897.360    -529.320
  C      501.492    -895.120    -528.401
  O      500.498    -895.600    -527.512
  C      502.911    -895.240    -527.884
  N      505.975    -893.720    -524.156
  C      505.831    -894.970    -524.752
  N      506.679    -895.910    -524.330
  N      504.978    -895.240    -525.676
  C      504.190    -894.180    -526.006
  C      504.210    -892.910    -525.483
  C      505.199    -892.610    -524.488
  O      505.406    -891.500    -524.005
  N      503.215    -892.140    -526.022
  C      502.669    -892.900    -526.942
  N      503.255    -894.130    -526.995
  O      502.075    -890.940    -530.511
  O      504.212    -891.780    -531.709
  H      500.432    -894.960    -526.763
  H      502.554    -890.080    -530.558
  H      506.688    -893.540    -523.457
  H      501.846    -892.620    -527.585
  H      503.090    -896.170    -527.333
  H      501.254    -894.080    -528.666
  H      507.424    -895.770    -523.625
  H      500.797    -895.740    -530.398
  H      506.646    -896.820    -524.750
  H      503.469    -896.560    -530.578
  H      504.126    -894.310    -531.415
  H      502.657    -894.930    -532.219
  P      500.533    -898.300    -530.112
  C      502.216    -899.110    -531.916
  O      501.031    -898.380    -531.625
  O      499.209    -897.410    -530.232
  O      500.247    -899.610    -529.434
  H      498.423    -897.980    -530.202
  H      502.206    -899.450    -532.958
  H      502.313    -900.000    -531.286
  H      503.077    -898.480    -531.727
  H      500.244    -890.925    -533.737
  H      501.172    -889.924    -532.647
  H      500.082    -891.131    -532.010

 3  4  5  6  7  8  9  10  11  12  23  26  30  31 0
 6-311+G(2d,p)
 ****
 33  35  36  37  38 0
 6-311+G(2d,p)
 ****
 1  2  13  14  15  16  17  18  19  20  21  22  24  25 0
 3-21G
 ****
 27  28  29  32  34  39  40  41  42  43  44  45  46  47  48  49 0
 3-21G
 ****


