%nproc=1
%NoSave
%Mem=1900MB
#P OB98/GEN NMR

erre ene a

0 1
  C      -43.943    -896.010     277.782
  O      -43.425    -895.340     278.912
  H      -43.129    -896.200     277.075
  H      -44.703    -895.400     277.288
  H      -44.375    -896.970     278.079
  P      -44.480    -894.880     280.030
  C      -44.206    -893.850     282.402
  O      -43.660    -894.690     281.393
  C      -43.351    -893.930     283.660
  O      -43.402    -895.280     284.199
  C      -41.874    -893.650     283.421
  O      -41.596    -892.270     283.332
  C      -41.260    -894.280     284.667
  O      -41.287    -893.390     285.787
  C      -42.166    -895.500     284.908
  N      -41.518    -896.740     284.499
  C      -40.338    -897.060     285.176
  O      -39.858    -896.360     286.066
  N      -39.709    -898.200     284.773
  C      -40.103    -899.020     283.748
  O      -39.452    -900.000     283.400
  C      -41.334    -898.630     283.057
  C      -41.978    -897.520     283.452
  O      -45.344    -896.200     280.280
  O      -45.333    -893.710     279.648
  H      -46.229    -896.100     279.872
  H      -40.918    -892.540     285.464
  H      -38.855    -898.450     285.255
  H      -41.678    -899.250     282.233
  H      -42.895    -897.210     282.952
  H      -42.422    -895.580     285.971
  H      -40.220    -894.550     284.490
  H      -41.521    -894.190     282.540
  H      -43.760    -893.250     284.411
  H      -45.228    -894.170     282.646
  H      -44.250    -892.820     282.022
  P      -40.166    -891.830     282.726
  C      -39.512    -889.550     281.611
  O      -40.461    -890.580     281.756
  O      -39.883    -893.060     281.734
  O      -39.122    -891.610     283.770
  H      -40.712    -893.460     281.421
  H      -39.886    -888.814     280.930
  H      -38.599    -889.957     281.230
  H      -39.330    -889.096     282.563

 6  7  8  9  10  11  12  13  14  15  16  27  31  32  33  34  35 0
 6-311+G(2d,p)
 ****
 36  37 0
 6-311+G(2d,p)
 ****
 1  2  3  4  5  17  18  19  20  21  22  23  24  25 0
 3-21G
 ****
 26  28  29  30  38  39  40  41  42  43  44  45 0
 3-21G
 ****


