%nproc=1
%NoSave
%Mem=1900MB
#P OB98/GEN NMR

erre ene a

0 1
  C      530.750    -283.722     462.418
  O      530.915    -285.138     462.416
  P      530.665    -285.895     461.013
  C      533.088    -286.115     460.056
  O      531.831    -285.429     460.013
  C      532.945    -287.573     459.667
  O      532.620    -287.702     458.260
  C      534.172    -288.422     459.884
  O      534.320    -288.813     461.231
  C      533.865    -289.629     459.011
  O      533.029    -290.546     459.734
  C      533.114    -288.998     457.834
  N      534.297    -290.816     453.247
  C      533.394    -291.290     454.190
  N      532.691    -292.406     453.840
  N      533.202    -290.743     455.344
  C      533.964    -289.630     455.551
  C      534.890    -289.070     454.697
  C      535.118    -289.703     453.433
  O      535.923    -289.352     452.562
  N      535.456    -287.933     455.248
  C      534.842    -287.814     456.401
  N      533.940    -288.819     456.648
  O      529.367    -285.141     460.420
  O      530.472    -287.361     461.136
  H      533.473    -290.698     460.594
  H      528.884    -285.749     459.849
  H      534.416    -291.297     452.357
  H      535.020    -287.001     457.098
  H      532.230    -289.596     457.551
  H      534.778    -290.192     458.727
  H      532.718    -292.848     452.934
  H      535.078    -287.913     459.505
  H      531.996    -292.735     454.482
  H      532.073    -287.977     460.246
  H      533.501    -286.043     461.070
  H      533.784    -285.593     459.380
  P      535.787    -288.735     461.880
  C      535.712    -286.544     463.308
  O      536.083    -287.162     462.093
  O      536.739    -289.146     460.664
  O      535.989    -289.592     463.090
  H      537.567    -289.565     460.987
  H      535.940    -287.193     464.163
  H      534.614    -286.346     463.304
  H      536.233    -285.603     463.422
  H      530.942    -283.342     463.400
  H      529.748    -283.479     462.132
  H      531.436    -283.282     461.724

 3  4  5  6  7  8  9  10  11  12  23  26  30  31  33  0
 6-311+G(2d,p)
 ****
 35  36  37  38 0
 6-311+G(2d,p)
 ****
 1  2  13  14  15  16  17  18  19  20  21  22  24  25  27  28  29 0
 3-21G
 ****
 32  34  39  40  41  42  43  44  45  46  47  48  49 0
 3-21G
 ****


