%nproc=1
%NoSave
%Mem=1900MB
#P OB98/GEN NMR

erre ene a

0 1
  C       12.872     -29.420    -166.355
  O       12.327     -28.125    -166.518
  H       12.192     -30.146    -166.808
  H       12.980     -29.659    -165.293
  H       13.843     -29.492    -166.852
  P       13.143     -26.879    -165.928
  C       11.541     -26.654    -163.916
  O       12.875     -26.888    -164.347
  C       11.459     -26.749    -162.397
  O       11.832     -28.068    -161.954
  C       12.374     -25.769    -161.664
  O       11.779     -24.482    -161.609
  C       12.469     -26.444    -160.306
  O       11.260     -26.206    -159.560
  C       12.565     -27.927    -160.705
  N       16.446     -30.440    -158.630
  C       15.229     -30.081    -158.085
  N       15.039     -30.401    -156.786
  N       14.295     -29.448    -158.745
  C       14.656     -29.132    -160.010
  C       15.836     -29.419    -160.655
  C       16.841     -30.169    -159.933
  O       17.926     -30.522    -160.384
  N       15.864     -28.880    -161.917
  C       14.686     -28.301    -162.045
  N       13.920     -28.413    -160.910
  O       12.888     -25.552    -166.577
  O       14.673     -27.325    -166.047
  H       11.319     -26.751    -158.754
  H       15.065     -27.021    -166.886
  H       17.133     -30.911    -158.063
  H       14.338     -27.792    -162.936
  H       12.092     -28.587    -159.970
  H       13.300     -26.081    -159.703
  H       15.812     -30.622    -156.171
  H       13.374     -25.738    -162.108
  H       14.174     -30.102    -156.354
  H       10.411     -26.597    -162.107
  H       10.905     -27.414    -164.383
  H       11.203     -25.665    -164.241
  P       12.671     -23.152    -161.733
  C       12.559     -22.838    -159.170
  O       13.393     -23.003    -160.309
  O       11.928     -21.941    -162.184
  O       13.877     -23.565    -162.692
  H       13.682     -23.432    -163.652
  H       13.166     -22.752    -158.293
  H       11.913     -23.686    -159.075
  H       11.970     -21.952    -159.285

 6  7  8  9  10  11  12  13  14  15  26  29  33  34 0
 6-311+G(2d,p)
 ****
 36  38  39  40  41 0
 6-311+G(2d,p)
 ****
 1  2  3  4  5  16  17  18  19  20  21  22  23  24  25 0
 3-21G
 ****
 27  28  30  31  32  35  37  42  43  44  45  46  47 0
 3-21G
 ****
 48  49 0
 3-21G
 ****


