%nproc=1
%NoSave
%Mem=1900MB
#P OB98/GEN NMR

erre ene a

0 1
  C      -41.046      64.447     105.509
  O      -41.512      64.744     106.812
  P      -42.767      65.731     106.969
  C      -41.289      67.762     107.740
  O      -42.197      67.221     106.799
  C      -41.713      69.180     108.136
  O      -40.924      69.606     109.281
  C      -41.524      70.230     107.033
  O      -42.599      71.171     107.155
  C      -40.204      70.877     107.408
  O      -40.050      72.172     106.848
  C      -40.299      70.857     108.937
  N      -39.002      70.982     109.603
  C      -38.392      72.232     109.607
  O      -38.867      73.229     109.067
  N      -37.177      72.298     110.240
  C      -36.500      71.251     110.795
  O      -35.406      71.364     111.333
  C      -37.172      69.947     110.717
  C      -38.374      69.876     110.144
  O      -43.066      65.604     108.534
  O      -43.912      65.393     106.078
  H      -42.261      65.500     109.069
  H      -39.279      72.594     107.270
  H      -36.733      73.203     110.288
  H      -36.659      69.088     111.133
  H      -38.889      68.926     110.074
  H      -40.967      71.655     109.281
  H      -39.378      70.252     107.049
  H      -41.526      69.791     106.031
  H      -42.762      69.147     108.457
  H      -40.289      67.800     107.301
  H      -41.246      67.108     108.619
  P      -43.121      71.903     105.820
  C      -41.965      74.203     106.288
  O      -42.076      73.062     105.469
  O      -44.370      72.718     106.415
  O      -43.508      70.984     104.708
  H      -44.151      73.206     107.224
  H      -41.005      74.688     106.090
  H      -42.009      73.940     107.349
  H      -42.769      74.905     106.052
  H      -40.211      63.781     105.572
  H      -40.745      65.352     105.023
  H      -41.830      63.984     104.947

 3  4  5  6  7  8  9  10  11  12  13  24  28  29  30  31  32 0
 6-311+G(2d,p)
 ****
 33  34 0
 6-311+G(2d,p)
 ****
 1  2  14  15  16  17  18  19  20  21  22  23  25  26  27 0
 3-21G
 ****
 35  36  37  38  39  40  41  42  43  44  45 0
 3-21G
 ****


