%nproc=1
%NoSave
%Mem=1900MB
#P OB98/GEN NMR

erre ene a

0 1
  C      -74.035     -31.813    -397.586
  O      -72.662     -31.574    -397.340
  H      -74.451     -30.952    -398.114
  H      -74.577     -31.943    -396.646
  H      -74.160     -32.700    -398.214
  P      -71.827     -32.678    -396.535
  C      -72.155     -31.475    -394.272
  O      -72.388     -32.653    -395.033
  C      -71.815     -31.830    -392.826
  O      -72.767     -32.773    -392.300
  C      -70.436     -32.467    -392.647
  O      -69.425     -31.473    -392.619
  C      -70.620     -33.151    -391.304
  O      -70.541     -32.173    -390.247
  C      -72.061     -33.685    -391.416
  N      -71.980     -38.641    -390.324
  C      -71.688     -37.555    -389.524
  N      -71.291     -37.827    -388.262
  N      -71.770     -36.313    -389.927
  C      -72.109     -36.193    -391.229
  C      -72.406     -37.194    -392.129
  C      -72.379     -38.566    -391.648
  O      -72.653     -39.555    -392.319
  N      -72.620     -36.698    -393.389
  C      -72.507     -35.391    -393.240
  N      -72.190     -35.033    -391.950
  O      -70.334     -32.571    -396.628
  O      -72.366     -34.073    -397.105
  H      -70.496     -32.662    -389.407
  H      -71.822     -34.383    -397.852
  H      -71.891     -39.577    -389.960
  H      -72.647     -34.662    -394.031
  H      -72.583     -33.676    -390.452
  H      -69.858     -33.905    -391.104
  H      -71.065     -38.757    -387.942
  H      -70.242     -33.228    -393.411
  H      -71.015     -37.043    -387.679
  H      -71.903     -30.918    -392.226
  H      -73.067     -30.871    -394.309
  H      -71.337     -30.893    -394.709
  P      -68.005     -31.698    -393.336
  C      -66.759     -32.371    -391.167
  O      -67.241     -32.786    -392.436
  O      -67.230     -30.453    -393.592
  O      -68.350     -32.537    -394.647
  H      -68.622     -31.967    -395.413
  H      -66.275     -33.194    -390.683
  H      -67.579     -32.035    -390.567
  H      -66.060     -31.571    -391.295

 6  7  8  9  10  11  12  13  14  15  26  29  33  34 0
 6-311+G(2d,p)
 ****
 36  38  39  40  41 0
 6-311+G(2d,p)
 ****
 1  2  3  4  5  16  17  18  19  20  21  22  23  24  25 0
 3-21G
 ****
 27  28  30  31  32  35  37  42  43  44  45  46  47 0
 3-21G
 ****
 48  49 0
 3-21G
 ****


