%nproc=1
%NoSave
%Mem=1900MB
#P OB98/GEN NMR

erre ene a

0 1
  C       75.206      15.648      87.537
  O       74.460      14.564      88.053
  H       74.739      16.595      87.819
  H       76.214      15.614      87.957
  H       75.276      15.576      86.446
  P       72.949      14.419      87.529
  C       72.067      15.946      89.435
  O       72.173      15.731      88.035
  C       71.159      17.141      89.716
  O       71.678      18.323      89.071
  C       69.730      16.990      89.202
  O       68.937      16.201      90.079
  C       69.276      18.442      89.199
  O       68.925      18.846      90.536
  C       70.549      19.174      88.743
  N       68.373      21.867      84.973
  C       68.174      21.862      86.309
  N       68.806      21.132      87.252
  C       69.749      20.355      86.692
  C       70.086      20.267      85.352
  C       69.347      21.068      84.463
  N       69.515      21.014      83.088
  N       71.098      19.346      85.159
  C       71.353      18.873      86.361
  N       70.570      19.457      87.320
  O       72.363      13.248      88.455
  O       72.807      14.101      86.077
  H       69.717      18.706      91.088
  H       72.414      12.401      87.972
  H       67.398      22.530      86.671
  H       72.088      18.109      86.582
  H       70.692      20.121      89.276
  H       68.398      18.617      88.567
  H       69.707      16.604      88.176
  H       71.168      17.324      90.799
  H       73.061      16.143      89.851
  H       68.672      21.240      82.567
  H       70.053      20.219      82.762
  H       71.660      15.043      89.899
  P       67.765      15.316      89.428
  C       66.273      17.429      89.525
  O       66.746      16.346      88.732
  O       66.961      14.794      90.711
  O       68.220      14.181      88.576
  H       66.917      13.819      90.698
  H       65.608      18.033      88.944
  H       67.102      18.023      89.849
  H       65.753      17.046      90.378

 6  7  8  9  10  11  12  13  14  15  25  28  32  33  34  35 0
 6-311+G(2d,p)
 ****
 36  39  40 0
 6-311+G(2d,p)
 ****
 1  2  3  4  5  16  17  18  19  20  21  22  23  24 0
 3-21G
 ****
 26  27  29  30  31  37  38  41  42  43  44  45  46  47  48 0
 3-21G
 ****


