%nproc=1
%NoSave
%Mem=1900MB
#P OB98/GEN NMR

erre ene a

0 1
  C     -145.363     101.241      86.264
  O     -144.983     102.302      85.410
  H     -144.583     100.478      86.244
  H     -146.298     100.798      85.910
  H     -145.484     101.601      87.290
  P     -145.954     103.578      85.362
  C     -148.108     104.199      84.054
  O     -147.172     103.183      84.386
  C     -148.779     103.897      82.717
  O     -147.777     103.962      81.658
  C     -149.441     102.511      82.638
  O     -150.616     102.624      81.829
  C     -148.414     101.690      81.871
  O     -148.987     100.538      81.256
  C     -147.901     102.746      80.893
  N     -145.447      98.924      78.721
  C     -146.749      99.014      79.179
  N     -147.517      97.912      79.036
  N     -147.252     100.085      79.727
  C     -146.382     101.121      79.776
  C     -145.070     101.163      79.365
  C     -144.515      99.958      78.781
  O     -143.365      99.814      78.377
  N     -144.512     102.394      79.612
  C     -145.486     103.094      80.169
  N     -146.638     102.365      80.290
  O     -145.107     104.630      84.501
  O     -146.352     104.132      86.690
  H     -148.270     100.057      80.791
  H     -144.592     105.213      85.091
  H     -145.105      98.071      78.317
  H     -145.408     104.120      80.505
  H     -148.604     102.928      80.069
  H     -147.615     101.356      82.545
  H     -147.213      97.067      78.579
  H     -149.701     102.078      83.611
  H     -148.488      97.969      79.324
  H     -149.509     104.688      82.505
  H     -147.580     105.158      83.983
  H     -148.862     104.267      84.846
  P     -152.023     102.841      82.568
  C     -154.140     101.396      83.015
  O     -152.947     101.564      82.266
  O     -152.713     103.990      81.691
  O     -151.908     103.234      84.004
  H     -153.332     104.504      82.242
  H     -154.639     100.505      82.696
  H     -154.781     102.238      82.859
  H     -153.900     101.318      84.055

 6  7  8  9  10  11  12  13  14  15  26  29  33  34 0
 6-311+G(2d,p)
 ****
 36  38  39  40  41 0
 6-311+G(2d,p)
 ****
 1  2  3  4  5  16  17  18  19  20  21  22  23  24  25 0
 3-21G
 ****
 27  28  30  31  32  35  37  42  43  44  45  46  47 0
 3-21G
 ****
 48  49 0
 3-21G
 ****


