%nproc=1
%NoSave
%Mem=1900MB
#P OB98/GEN NMR

erre ene a

0 1
  C      190.332      82.737    -223.878
  O      190.938      81.626    -224.512
  H      190.207      82.506    -222.819
  H      189.346      82.925    -224.313
  H      190.960      83.630    -223.970
  P      191.366      81.753    -226.053
  C      189.215      81.614    -227.478
  O      190.150      82.463    -226.827
  C      187.855      82.306    -227.628
  O      187.980      83.379    -228.597
  C      186.733      81.374    -228.098
  O      185.514      81.731    -227.443
  C      186.625      81.676    -229.585
  O      185.323      81.394    -230.099
  C      186.996      83.158    -229.630
  N      185.735      84.659    -234.290
  C      184.932      84.436    -233.172
  N      183.611      84.623    -233.327
  N      185.406      84.058    -232.013
  C      186.759      83.932    -232.001
  C      187.654      84.119    -233.027
  C      187.114      84.517    -234.312
  O      187.763      84.706    -235.333
  N      188.938      83.873    -232.625
  C      188.828      83.533    -231.349
  N      187.521      83.540    -230.928
  O      191.845      80.479    -226.676
  O      192.508      82.874    -226.054
  H      185.329      81.644    -231.044
  H      193.386      82.475    -226.170
  H      185.315      84.935    -235.162
  H      189.649      83.267    -230.697
  H      186.135      83.815    -229.426
  H      187.355      81.070    -230.139
  H      183.182      84.943    -234.194
  H      186.961      80.322    -227.908
  H      183.014      84.501    -232.529
  H      187.603      82.775    -226.671
  H      189.105      80.700    -226.878
  H      189.604      81.330    -228.467
  P      184.968      80.809    -226.249
  C      183.686      78.861    -227.333
  O      184.921      79.283    -226.761
  O      183.725      81.285    -225.578
  O      186.213      80.787    -225.219
  H      185.858      80.754    -224.307
  H      183.765      77.838    -227.637
  H      183.460      79.470    -228.184
  H      182.905      78.958    -226.608

 6  7  8  9  10  11  12  13  14  15  26  29  33  34 0
 6-311+G(2d,p)
 ****
 36  38  39  40  41 0
 6-311+G(2d,p)
 ****
 1  2  3  4  5  16  17  18  19  20  21  22  23  24  25 0
 3-21G
 ****
 27  28  30  31  32  35  37  42  43  44  45  46  47 0
 3-21G
 ****
 48  49 0
 3-21G
 ****


