%nproc=1
%NoSave
%Mem=1900MB
#P OB98/GEN NMR

erre ene a

0 1
  C     -164.019     -74.190     -49.645
  O     -164.288     -73.864     -50.992
  H     -162.962     -74.450     -49.550
  H     -164.621     -75.048     -49.333
  H     -164.232     -73.332     -49.002
  P     -165.814     -73.550     -51.372
  C     -166.442     -75.929     -52.208
  O     -166.624     -74.925     -51.219
  C     -167.312     -77.137     -51.875
  O     -166.924     -77.681     -50.590
  C     -168.795     -76.818     -51.747
  O     -169.441     -76.699     -53.003
  C     -169.281     -78.020     -50.957
  O     -169.563     -79.137     -51.812
  C     -168.089     -78.317     -50.028
  N     -168.348     -77.878     -48.659
  C     -169.110     -78.747     -47.883
  O     -169.547     -79.819     -48.297
  N     -169.390     -78.321     -46.614
  C     -169.035     -77.119     -46.077
  O     -169.368     -76.776     -44.949
  C     -168.246     -76.236     -46.949
  C     -167.946     -76.647     -48.184
  O     -165.756     -73.315     -52.954
  O     -166.414     -72.386     -50.655
  H     -165.855     -72.366     -53.150
  H     -169.912     -79.841     -51.229
  H     -169.939     -78.936     -46.033
  H     -167.948     -75.272     -46.556
  H     -167.375     -76.009     -48.851
  H     -167.879     -79.394     -50.007
  H     -170.195     -77.789     -50.417
  H     -168.937     -75.914     -51.142
  H     -167.147     -77.907     -52.639
  H     -165.393     -76.242     -52.227
  H     -166.703     -75.516     -53.188
  P     -170.307     -75.376     -53.275
  C     -172.551     -76.332     -52.289
  O     -171.489     -75.398     -52.193
  O     -171.013     -75.767     -54.657
  O     -169.485     -74.134     -53.313
  H     -171.111     -76.730     -54.753
  H     -173.232     -76.183     -51.477
  H     -172.157     -77.326     -52.246
  H     -173.066     -76.192     -53.216

 6  7  8  9  10  11  12  13  14  15  16  27  31  32  33  34  35 0
 6-311+G(2d,p)
 ****
 36  37 0
 6-311+G(2d,p)
 ****
 1  2  3  4  5  17  18  19  20  21  22  23  24  25 0
 3-21G
 ****
 26  28  29  30  38  39  40  41  42  43  44  45 0
 3-21G
 ****


