%nproc=1
%NoSave
%Mem=1900MB
#P OB98/GEN NMR

erre ene a

0 1
  C     -165.857      40.799    -197.928
  O     -166.322      41.248    -199.203
  P     -166.400      42.839    -199.410
  C     -163.887      43.392    -199.074
  O     -164.983      43.337    -199.975
  C     -162.667      42.682    -199.665
  O     -162.856      41.258    -199.767
  C     -162.311      43.159    -201.067
  O     -161.603      44.387    -200.998
  C     -161.459      42.006    -201.579
  O     -160.089      42.129    -201.146
  C     -162.119      40.782    -200.925
  N     -163.455      36.135    -202.450
  C     -162.400      36.538    -201.653
  N     -161.601      35.559    -201.175
  N     -162.152      37.786    -201.351
  C     -163.032      38.656    -201.899
  C     -164.132      38.377    -202.678
  C     -164.394      36.992    -203.008
  O     -165.327      36.585    -203.690
  N     -164.825      39.518    -202.995
  C     -164.074      40.491    -202.512
  N     -163.011      40.018    -201.783
  O     -166.440      43.404    -197.913
  O     -167.593      43.278    -200.194
  H     -160.068      42.201    -200.176
  H     -167.325      43.770    -197.720
  H     -163.594      35.160    -202.656
  H     -164.268      41.545    -202.637
  H     -161.369      40.071    -200.555
  H     -161.434      41.974    -202.672
  H     -161.735      34.579    -201.363
  H     -163.218      43.258    -201.674
  H     -160.828      35.832    -200.582
  H     -161.823      42.862    -198.986
  H     -164.159      42.928    -198.125
  H     -163.663      44.442    -198.860
  P     -162.001      45.542    -202.034
  C     -163.455      47.161    -200.619
  O     -162.194      46.892    -201.198
  O     -163.494      45.141    -202.466
  O     -161.107      45.643    -203.224
  H     -163.590      45.238    -203.433
  H     -163.308      47.759    -199.714
  H     -163.984      46.242    -200.354
  H     -164.060      47.734    -201.327
  H     -165.848      39.729    -197.908
  H     -166.508      41.164    -197.162
  H     -164.867      41.167    -197.760

 3  4  5  6  7  8  9  10  11  12  23  26  30  31 0
 6-311+G(2d,p)
 ****
 33  35  36  37  38 0
 6-311+G(2d,p)
 ****
 1  2  13  14  15  16  17  18  19  20  21  22  24  25 0
 3-21G
 ****
 27  28  29  32  34  39  40  41  42  43  44  45  46  47  48  49 0
 3-21G
 ****


