%nproc=1
%NoSave
%Mem=1900MB
#P OB98/GEN NMR

erre ene a

0 1
  C     -142.983     107.948     101.561
  O     -144.229     108.381     101.050
  H     -142.493     108.793     102.052
  H     -142.342     107.600     100.746
  H     -143.120     107.149     102.295
  P     -145.222     107.298     100.415
  C     -145.314     105.940      98.222
  O     -144.730     107.040      98.911
  C     -144.662     105.787      96.848
  O     -143.305     105.310      96.991
  C     -145.362     104.779      95.945
  O     -146.550     105.320      95.400
  C     -144.267     104.494      94.930
  O     -144.213     105.525      93.932
  C     -143.003     104.517      95.818
  N     -142.543     103.180      96.189
  C     -141.930     102.436      95.187
  O     -141.795     102.840      94.030
  N     -141.496     101.188      95.549
  C     -141.717     100.585      96.755
  O     -141.385      99.428      96.998
  C     -142.391     101.408      97.767
  C     -142.767     102.647      97.444
  O     -146.677     107.590     100.561
  O     -144.822     105.936     101.159
  H     -145.053     105.470      93.435
  H     -145.503     105.720     101.824
  H     -141.061     100.630      94.833
  H     -142.569     100.969      98.740
  H     -143.272     103.267      98.175
  H     -142.182     105.030      95.299
  H     -144.421     103.550      94.411
  H     -145.575     103.857      96.501
  H     -144.624     106.775      96.372
  H     -146.385     106.132      98.097
  H     -145.182     105.033      98.821
  P     -147.791     104.358      95.085
  C     -148.255     102.271      93.660
  O     -147.326     103.307      93.969
  O     -149.082     105.056      94.797
  O     -147.918     103.456      96.401
  H     -148.794     103.597      96.808
  H     -147.841     101.633      92.907
  H     -149.165     102.704      93.300
  H     -148.457     101.698      94.541

 6  7  8  9  10  11  12  13  14  15  16  26  31  32  33  34  35 0
 6-311+G(2d,p)
 ****
 36  37 0
 6-311+G(2d,p)
 ****
 1  2  3  4  5  17  18  19  20  21  22  23  24  25 0
 3-21G
 ****
 27  28  29  30  38  39  40  41  42  43  44  45 0
 3-21G
 ****


