%nproc=1
%NoSave
%Mem=1900MB
#P OB98/GEN NMR

erre ene a

0 1
  C      224.423      82.609    -230.752
  O      225.117      83.492    -229.895
  H      225.053      81.734    -230.945
  H      224.206      83.101    -231.704
  H      223.493      82.277    -230.284
  P      224.347      84.825    -229.451
  C      225.658      86.379    -231.076
  O      224.401      85.817    -230.715
  C      225.567      87.903    -231.051
  O      226.872      88.468    -231.320
  C      224.641      88.493    -232.116
  O      223.277      88.403    -231.735
  C      225.158      89.922    -232.197
  O      224.598      90.746    -231.167
  C      226.667      89.746    -231.960
  N      230.230      92.378    -234.492
  C      229.724      92.511    -233.244
  N      228.782      91.754    -232.637
  C      228.372      90.765    -233.453
  C      228.792      90.509    -234.747
  C      229.772      91.372    -235.274
  N      230.265      91.258    -236.555
  N      228.104      89.432    -235.275
  C      227.290      89.044    -234.318
  N      227.426      89.812    -233.194
  O      225.355      85.492    -228.401
  O      222.989      84.612    -228.868
  H      224.816      90.316    -230.315
  H      225.104      85.230    -227.495
  H      230.119      93.340    -232.661
  H      226.585      88.221    -234.388
  H      227.073      90.512    -231.290
  H      224.905      90.384    -233.154
  H      224.808      87.999    -233.079
  H      225.259      88.218    -230.048
  H      225.925      86.051    -232.090
  H      226.418      86.028    -230.373
  H      230.949      91.924    -236.871
  H      229.853      90.577    -237.181
  P      222.162      88.382    -232.887
  C      222.574      90.896    -233.418
  O      222.504      89.570    -233.913
  O      220.849      88.898    -232.133
  O      221.955      87.047    -233.531
  H      220.276      88.138    -231.900
  H      222.809      91.564    -234.220
  H      223.335      90.957    -232.668
  H      221.631      91.168    -232.992

 6  7  8  9  10  11  12  13  14  15  25  28  32  33  34  35 0
 6-311+G(2d,p)
 ****
 36  37  40 0
 6-311+G(2d,p)
 ****
 1  2  3  4  5  16  17  18  19  20  21  22  23  24 0
 3-21G
 ****
 26  27  29  30  31  38  39 41  42  43  44  45  46  47  48 0
 3-21G
 ****


