%nproc=1
%NoSave
%Mem=1900MB
#P OB98/GEN NMR

erre ene a

0 1
  C     -149.097     892.275      50.416
  O     -148.921     893.144      49.302
  P     -148.741     892.464      47.855
  C     -147.161     894.324      46.954
  O     -148.430     893.678      46.847
  C     -146.948     895.291      45.806
  O     -146.845     894.557      44.562
  C     -148.077     896.293      45.590
  O     -147.988     897.391      46.486
  C     -147.823     896.723      44.152
  O     -146.796     897.732      44.126
  C     -147.319     895.433      43.500
  N     -149.128     894.465      38.866
  C     -148.044     895.230      39.253
  N     -147.324     895.805      38.260
  N     -147.704     895.430      40.507
  C     -148.475     894.759      41.380
  C     -149.583     893.962      41.126
  C     -149.987     893.807      39.741
  O     -150.961     893.184      39.344
  N     -150.102     893.441      42.275
  C     -149.304     893.885      43.231
  N     -148.328     894.717      42.743
  O     -150.226     892.033      47.471
  O     -147.795     891.309      47.805
  H     -145.961     897.303      44.388
  H     -150.208     891.290      46.835
  H     -149.332     894.333      37.894
  H     -149.414     893.638      44.282
  H     -146.461     895.615      42.849
  H     -148.712     897.153      43.674
  H     -147.468     895.590      37.291
  H     -149.057     895.798      45.658
  H     -146.505     896.345      38.526
  H     -145.990     895.810      45.968
  H     -146.367     893.560      46.934
  H     -147.112     894.851      47.913
  P     -149.051     897.427      47.697
  C     -148.979     900.029      47.560
  O     -148.868     898.856      48.372
  O     -148.432     896.406      48.755
  O     -150.446     897.054      47.292
  H     -149.147     896.029      49.316
  H     -149.756     899.891      46.800
  H     -148.022     900.229      47.093
  H     -149.258     900.864      48.200
  H     -149.204     892.856      51.308
  H     -148.245     891.635      50.507
  H     -149.975     891.681      50.270

 3  4  5  6  7  8  9  10  11  12  23  26  30  31  33  0
 6-311+G(2d,p)
 ****
 35  36  37  38 0
 6-311+G(2d,p)
 ****
 1  2  13  14  15  16  17  18  19  20  21  22  24  25  27  28  29 0
 3-21G
 ****
 32  34  39  40  41  42  43  44  45  46  47  48  49 0
 3-21G
 ****


