%nproc=1
%NoSave
%Mem=1900MB
#P OB98/GEN NMR

erre ene a

0 1
  C     -457.438    -236.843     473.566
  O     -456.106    -237.097     473.963
  H     -457.531    -237.033     472.496
  H     -457.691    -235.798     473.765
  H     -458.131    -237.499     474.102
  P     -455.777    -236.993     475.528
  C     -455.629    -234.389     475.559
  O     -456.309    -235.552     476.006
  C     -455.972    -233.204     476.472
  O     -455.623    -233.552     477.839
  C     -455.208    -231.923     476.113
  O     -456.064    -230.794     476.326
  C     -454.068    -231.904     477.121
  O     -453.534    -230.606     477.353
  C     -454.755    -232.515     478.344
  N     -453.800    -233.058     479.312
  C     -453.652    -232.384     480.520
  O     -454.319    -231.405     480.860
  N     -452.680    -232.876     481.354
  C     -451.849    -233.926     481.098
  O     -450.987    -234.301     481.876
  C     -452.047    -234.599     479.801
  C     -452.996    -234.138     478.982
  O     -454.183    -236.818     475.559
  O     -456.242    -238.134     476.367
  H     -453.744    -237.685     475.616
  H     -452.899    -230.672     478.101
  H     -452.559    -232.393     482.239
  H     -451.405    -235.433     479.561
  H     -453.162    -234.604     478.014
  H     -455.395    -231.767     478.837
  H     -453.253    -232.550     476.772
  H     -454.841    -231.918     475.081
  H     -457.056    -233.040     476.447
  H     -455.939    -234.159     474.540
  H     -454.553    -234.577     475.570
  P     -457.259    -230.570     475.276
  C     -455.815    -229.230     473.551
  O     -456.561    -230.405     473.836
  O     -457.743    -229.093     475.655
  O     -458.316    -231.627     475.360
  H     -457.016    -228.499     475.913
  H     -455.424    -229.288     472.557
  H     -455.007    -229.143     474.247
  H     -456.452    -228.374     473.635

 6  7  8  9  10  11  12  13  14  15  16  27  31  32  33  34  35 0
 6-311+G(2d,p)
 ****
 36  37 0
 6-311+G(2d,p)
 ****
 1  2  3  4  5  17  18  19  20  21  22  23  24  25 0
 3-21G
 ****
 26  28  29  30  38  39  40  41  42  43  44  45 0
 3-21G
 ****


