%nproc=1
%NoSave
%Mem=1900MB
#P OB98/GEN NMR

erre ene a

0 1
  C      248.014    -483.275    -133.639
  O      246.843    -482.598    -134.048
  H      248.635    -483.462    -134.518
  H      247.753    -484.231    -133.179
  H      248.579    -482.662    -132.931
  P      245.798    -482.214    -132.892
  C      244.552    -480.023    -132.229
  O      245.349    -480.700    -133.186
  C      244.523    -478.519    -132.525
  O      245.882    -477.995    -132.420
  C      244.026    -478.171    -133.938
  O      243.416    -476.872    -133.885
  C      245.332    -478.094    -134.716
  O      245.138    -477.470    -135.965
  C      246.193    -477.369    -133.684
  N      249.972    -475.920    -136.809
  C      248.659    -475.600    -136.777
  N      247.717    -476.016    -135.906
  C      248.251    -476.834    -134.982
  C      249.570    -477.239    -134.880
  C      250.457    -476.749    -135.856
  N      251.794    -477.075    -135.893
  N      249.743    -478.083    -133.796
  C      248.545    -478.182    -133.256
  N      247.611    -477.452    -133.940
  O      246.723    -482.092    -131.589
  O      244.677    -483.176    -132.696
  H      245.997    -477.209    -136.360
  H      246.710    -482.932    -131.095
  H      248.320    -474.922    -137.557
  H      248.294    -478.772    -132.378
  H      245.928    -476.308    -133.606
  H      245.723    -479.098    -134.919
  H      243.308    -478.896    -134.336
  H      243.925    -478.010    -131.756
  H      244.979    -480.197    -131.232
  H      243.530    -480.418    -132.255
  H      252.357    -476.695    -136.634
  H      252.165    -477.707    -135.199
  P      241.814    -476.759    -133.797
  C      240.085    -474.808    -133.553
  O      241.400    -475.214    -133.911
  O      241.543    -477.061    -132.245
  O      241.049    -477.709    -134.663
  H      240.656    -477.451    -132.139
  H      239.988    -473.751    -133.691
  H      239.903    -475.052    -132.527
  H      239.374    -475.315    -134.172

 6  7  8  9  10  11  12  13  14  15  25  28  32  33  34  35 0
 6-311+G(2d,p)
 ****
 36  37  40 0
 6-311+G(2d,p)
 ****
 1  2  3  4  5  16  17  18  19  20  21  22  23  24 0
 3-21G
 ****
 26  27  29  30  31  38  39 41  42  43  44  45  46  47  48 0
 3-21G
 ****


