%nproc=1
%NoSave
%Mem=1900MB
#P OB98/GEN NMR

erre ene a

0 1
  C      685.979     194.192     193.933
  O      686.956     194.157     192.910
  H      685.228     193.421     193.730
  H      685.487     195.167     193.948
  H      686.438     193.991     194.908
  P      688.241     195.093     193.107
  C      687.573     196.620     191.076
  O      687.893     196.520     192.459
  C      686.336     197.493     190.888
  O      685.213     196.977     191.628
  C      686.499     198.909     191.420
  O      687.357     199.695     190.625
  C      685.045     199.377     191.401
  O      684.638     199.751     190.078
  C      684.308     198.093     191.862
  N      683.881     198.164     193.254
  C      682.894     199.114     193.538
  O      682.433     199.822     192.637
  N      682.477     199.255     194.836
  C      682.979     198.505     195.768
  N      682.532     198.705     197.032
  C      684.002     197.470     195.503
  C      684.405     197.361     194.239
  O      689.281     194.474     192.062
  O      688.750     195.188     194.508
  H      685.449     200.033     189.611
  H      688.934     194.405     191.158
  H      684.387     196.863     196.307
  H      685.156     196.630     193.960
  H      683.422     197.916     191.236
  H      684.888     200.247     192.037
  H      686.829     198.888     192.464
  H      686.072     197.494     189.823
  H      681.843     199.437     197.179
  H      687.413     195.630     190.643
  H      682.872     198.201     197.837
  H      688.431     197.067     190.571
  P      688.865     199.984     191.102
  C      688.547     202.442     190.401
  O      688.936     201.548     191.440
  O      689.925     199.500     190.166
  O      688.929     199.313     192.556
  H      688.293     199.681     193.198
  H      688.637     203.451     190.746
  H      687.531     202.249     190.126
  H      689.180     202.298     189.551

 6  7  8  9  10  11  12  13  14  15  16  26  30  31  32  33  35 0
 6-311+G(2d,p)
 ****
 37  38 0
 6-311+G(2d,p)
 ****
 1  2  3  4  5  17  18  19  20  21  22  23  24  25 0
 3-21G
 ****
 27  28  29  34  36  39  40  41  42  43  44  45  46 0
 3-21G
 ****


