%nproc=1
%NoSave
%Mem=1900MB
#P OB98/GEN NMR

erre ene a

0 1
  C      260.308     214.625    -147.429
  O      261.484     213.818    -147.547
  P      261.301     212.229    -147.443
  C      260.930     211.965    -150.005
  O      261.676     211.577    -148.857
  C      260.686     210.755    -150.910
  O      259.637     211.015    -151.862
  C      261.898     210.377    -151.745
  O      262.843     209.674    -150.962
  C      261.272     209.538    -152.854
  O      261.215     208.146    -152.500
  C      259.848     210.131    -152.977
  N      259.633     210.814    -154.242
  C      260.061     210.133    -155.386
  O      260.603     209.031    -155.286
  N      259.883     210.728    -156.609
  C      259.350     211.910    -156.681
  N      259.207     212.451    -157.918
  C      258.912     212.675    -155.494
  C      259.083     212.074    -154.320
  O      259.712     212.047    -147.359
  O      261.986     211.618    -146.264
  H      262.140     207.828    -152.528
  H      259.489     211.276    -146.809
  H      258.480     213.657    -155.602
  H      258.789     212.558    -153.395
  H      259.098     209.335    -152.892
  H      261.850     209.604    -153.779
  H      262.351     211.280    -152.174
  H      260.386     209.905    -150.278
  H      259.522     211.901    -158.711
  H      261.464     212.741    -150.559
  H      258.812     213.364    -158.091
  H      259.981     212.408    -149.680
  P      264.276     210.352    -150.738
  C      264.390     212.220    -148.979
  O      264.275     210.828    -149.205
  O      264.114     211.745    -151.516
  O      265.475     209.593    -151.197
  H      264.964     212.219    -151.531
  H      264.169     212.422    -147.929
  H      263.679     212.771    -149.601
  H      265.410     212.547    -149.194
  H      260.574     215.658    -147.516
  H      259.852     214.453    -146.476
  H      259.619     214.367    -148.206

 3  4  5  6  7  8  9  10  11  12  13  21  23  27  28  29  30  32 0
 6-311+G(2d,p)
 ****
 34  35 0
 6-311+G(2d,p)
 ****
 1  2  14  15  16  17  18  19  20  22  24  25  26 0
 3-21G
 ****
 31  33  36  37  38  39  40  41  42  43  44  45  46 0
 3-21G
 ****


