%nproc=1
%NoSave
%Mem=1900MB
#P OB98/GEN NMR

erre ene a

0 1
  C      -79.335       2.285    -208.907
  O      -78.888       1.714    -207.693
  H      -78.591       3.007    -209.255
  H      -80.284       2.807    -208.748
  H      -79.462       1.511    -209.671
  P      -79.781       0.538    -207.065
  C      -79.831      -1.507    -208.684
  O      -79.167      -0.842    -207.618
  C      -79.182      -2.875    -208.922
  O      -77.893      -2.668    -209.564
  C      -78.938      -3.664    -207.630
  O      -79.156      -5.056    -207.881
  C      -77.460      -3.418    -207.349
  O      -76.860      -4.420    -206.540
  C      -76.902      -3.365    -208.777
  N      -75.614      -2.673    -208.848
  C      -74.520      -3.286    -208.240
  O      -74.543      -4.410    -207.721
  N      -73.352      -2.569    -208.250
  C      -73.181      -1.309    -208.769
  O      -72.116      -0.709    -208.725
  C      -74.378      -0.709    -209.383
  C      -75.517      -1.404    -209.391
  O      -81.167       0.665    -207.861
  O      -79.962       0.582    -205.586
  H      -81.780       1.261    -207.391
  H      -77.380      -4.486    -205.709
  H      -72.551      -3.002    -207.820
  H      -74.280       0.289    -209.796
  H      -76.418      -0.979    -209.828
  H      -76.801      -4.379    -209.187
  H      -77.332      -2.454    -206.846
  H      -79.567      -3.334    -206.804
  H      -79.810      -3.450    -209.622
  H      -79.744      -0.903    -209.595
  H      -80.890      -1.628    -208.434
  P      -80.417      -5.747    -207.163
  C      -81.805      -5.951    -209.373
  O      -81.153      -6.613    -208.302
  O      -81.379      -4.490    -206.931
  O      -80.045      -6.498    -205.924
  H      -81.350      -3.843    -207.663
  H      -82.236      -6.676    -210.031
  H      -81.095      -5.359    -209.911
  H      -82.576      -5.318    -208.985

 6  7  8  9  10  11  12  13  14  15  16  27  31  32  33  34  35 0
 6-311+G(2d,p)
 ****
 36  37 0
 6-311+G(2d,p)
 ****
 1  2  3  4  5  17  18  19  20  21  22  23  24  25 0
 3-21G
 ****
 26  28  29  30  38  39  40  41  42  43  44  45 0
 3-21G
 ****


