%nproc=1
%NoSave
%Mem=1900MB
#P OB98/GEN NMR

erre ene a

0 1
  C      -19.502     135.336     119.164
  O      -20.440     134.379     118.725
  H      -18.505     134.886     119.137
  H      -19.728     135.626     120.194
  H      -19.504     136.222     118.524
  P      -21.882     134.878     118.247
  C      -23.317     133.186     119.564
  O      -22.930     134.546     119.419
  C      -24.294     132.750     118.472
  O      -24.640     131.357     118.637
  C      -25.612     133.522     118.530
  O      -25.608     134.779     117.876
  C      -26.572     132.554     117.845
  O      -26.535     132.716     116.419
  C      -26.013     131.185     118.246
  N      -29.211     127.464     119.675
  C      -28.748     127.775     118.412
  N      -29.247     127.036     117.395
  N      -27.892     128.734     118.174
  C      -27.555     129.447     119.273
  C      -27.960     129.243     120.573
  C      -28.866     128.144     120.834
  O      -29.313     127.831     121.935
  N      -27.405     130.170     121.425
  C      -26.729     130.975     120.630
  N      -26.769     130.561     119.318
  O      -22.290     133.821     117.110
  O      -21.934     136.280     117.720
  H      -25.703     132.331     116.088
  H      -22.912     134.231     116.483
  H      -29.849     126.697     119.803
  H      -26.176     131.850     120.953
  H      -26.019     130.485     117.400
  H      -27.607     132.722     118.156
  H      -29.992     126.369     117.516
  H      -25.934     133.649     119.570
  H      -29.141     127.399     116.446
  H      -23.809     132.850     117.494
  H      -23.790     133.096     120.546
  H      -22.435     132.539     119.570
  P      -26.030     136.100     118.676
  C      -27.917     136.881     117.061
  O      -27.569     136.384     118.335
  O      -25.246     137.254     117.890
  O      -25.694     136.090     120.128
  H      -24.408     137.464     118.345
  H      -28.978     137.011     117.007
  H      -27.604     136.187     116.310
  H      -27.433     137.822     116.901

 6  7  8  9  10  11  12  13  14  15  26  29  33  34 0
 6-311+G(2d,p)
 ****
 36  38  39  40  41 0
 6-311+G(2d,p)
 ****
 1  2  3  4  5  16  17  18  19  20  21  22  23  24  25 0
 3-21G
 ****
 27  28  30  31  32  35  37  42  43  44  45  46  47 0
 3-21G
 ****
 48  49 0
 3-21G
 ****


