%nproc=1
%NoSave
%Mem=1900MB
#P OB98/GEN NMR

erre ene a

0 1
  C       36.484     344.562     -36.277
  O       37.791     344.024     -36.214
  H       36.529     345.619     -36.004
  H       35.823     344.046     -35.575
  H       36.087     344.480     -37.292
  P       37.991     342.468     -36.532
  C       37.966     340.448     -34.922
  O       37.346     341.672     -35.296
  C       37.076     339.681     -33.948
  O       35.909     339.175     -34.626
  C       37.751     338.476     -33.297
  O       38.557     338.883     -32.204
  C       36.535     337.678     -32.860
  O       35.968     338.270     -31.673
  C       35.580     337.880     -34.051
  N       33.057     334.371     -36.713
  C       32.649     335.123     -35.630
  N       31.400     334.887     -35.173
  N       33.399     336.017     -35.041
  C       34.644     336.099     -35.561
  C       35.171     335.397     -36.621
  C       34.309     334.456     -37.306
  O       34.625     333.786     -38.285
  N       36.501     335.679     -36.801
  C       36.763     336.593     -35.886
  N       35.670     336.876     -35.100
  O       39.387     342.039     -36.868
  O       36.969     342.174     -37.728
  H       35.229     337.699     -31.393
  H       37.402     342.282     -38.595
  H       32.438     333.690     -37.122
  H       37.719     337.084     -35.751
  H       34.531     337.915     -33.737
  H       36.771     336.640     -32.620
  H       30.834     334.111     -35.486
  H       38.316     337.887     -34.028
  H       31.105     335.386     -34.342
  H       36.722     340.389     -33.187
  H       38.923     340.695     -34.451
  H       38.161     339.833     -35.806
  P       39.617     337.884     -31.523
  C       39.313     335.701     -30.169
  O       38.750     336.942     -30.555
  O       40.774     338.552     -30.867
  O       40.019     336.876     -32.695
  H       40.747     337.221     -33.267
  H       38.630     335.183     -29.529
  H       40.231     335.873     -29.646
  H       39.504     335.110     -31.040

 6  7  8  9  10  11  12  13  14  15  26  29  33  34 0
 6-311+G(2d,p)
 ****
 36  38  39  40  41 0
 6-311+G(2d,p)
 ****
 1  2  3  4  5  16  17  18  19  20  21  22  23  24  25 0
 3-21G
 ****
 27  28  30  31  32  35  37  42  43  44  45  46  47 0
 3-21G
 ****
 48  49 0
 3-21G
 ****


