%nproc=1
%NoSave
%Mem=1900MB
#P OB98/GEN NMR

erre ene a

0 1
  C      135.024     -80.598      41.534
  O      136.260     -80.138      41.025
  H      134.351     -80.789      40.695
  H      134.569     -79.845      42.184
  H      135.165     -81.531      42.087
  P      137.389     -79.676      42.069
  C      137.214     -77.186      41.371
  O      138.020     -78.354      41.404
  C      137.636     -76.287      40.211
  O      136.777     -75.131      40.113
  C      139.046     -75.715      40.322
  O      140.064     -76.668      40.058
  C      138.976     -74.630      39.258
  O      139.067     -75.228      37.953
  C      137.555     -74.060      39.505
  N      137.557     -72.878      40.366
  C      136.428     -72.053      40.300
  O      135.495     -72.330      39.547
  N      136.397     -70.909      41.061
  C      137.413     -70.606      41.810
  N      137.351     -69.439      42.507
  C      138.614     -71.456      41.923
  C      138.624     -72.559      41.178
  O      138.377     -80.720      42.480
  O      136.568     -79.057      43.296
  H      138.856     -74.534      37.305
  H      137.223     -78.766      43.976
  H      139.438     -71.152      42.554
  H      139.480     -73.227      41.196
  H      137.068     -73.807      38.557
  H      139.778     -73.894      39.338
  H      139.198     -75.239      41.296
  H      137.504     -76.863      39.283
  H      136.532     -68.862      42.372
  H      137.324     -76.668      42.329
  H      138.188     -69.002      42.879
  H      136.163     -77.458      41.232
  P      141.163     -76.927      41.199
  C      142.302     -74.670      40.560
  O      142.454     -76.058      40.800
  O      141.618     -78.431      40.922
  O      140.700     -76.712      42.607
  H      141.110     -79.061      41.474
  H      143.251     -74.246      40.308
  H      141.922     -74.195      41.440
  H      141.618     -74.521      39.751

 6  7  8  9  10  11  12  13  14  15  16  26  30  31  32  33  35 0
 6-311+G(2d,p)
 ****
 37  38 0
 6-311+G(2d,p)
 ****
 1  2  3  4  5  17  18  19  20  21  22  23  24  25 0
 3-21G
 ****
 27  28  29  34  36  39  40  41  42  43  44  45  46 0
 3-21G
 ****


