%nproc=1
%NoSave
%Mem=1900MB
#P OB98/GEN NMR

erre ene a

0 1
  C       14.489    -156.796    -244.893
  O       13.371    -155.976    -245.166
  H       14.693    -156.757    -243.820
  H       15.366    -156.421    -245.426
  H       14.291    -157.832    -245.176
  P       12.766    -155.958    -246.649
  C       10.469    -155.076    -245.872
  O       11.613    -154.840    -246.680
  C       10.763    -154.743    -244.405
  O       11.157    -153.348    -244.317
  C        9.565    -154.951    -243.475
  O       10.028    -155.454    -242.222
  C        9.013    -153.551    -243.294
  O        8.305    -153.403    -242.065
  C       10.278    -152.700    -243.377
  N        7.711    -148.501    -242.237
  C        7.856    -149.676    -241.528
  N        7.206    -149.756    -240.347
  N        8.573    -150.689    -241.941
  C        9.185    -150.461    -243.129
  C        9.120    -149.344    -243.926
  C        8.306    -148.238    -243.466
  O        8.127    -147.179    -244.059
  N        9.866    -149.502    -245.068
  C       10.378    -150.714    -244.960
  N        9.985    -151.341    -243.807
  O       12.351    -157.295    -247.177
  O       13.923    -155.310    -247.541
  H        7.656    -154.139    -242.020
  H       14.375    -155.989    -248.075
  H        7.138    -147.757    -241.878
  H       11.031    -151.184    -245.684
  H       10.795    -152.624    -242.413
  H        8.325    -153.315    -244.116
  H        6.656    -149.006    -239.956
  H        8.830    -155.635    -243.895
  H        7.320    -150.595    -239.792
  H       11.623    -155.339    -244.079
  H       10.198    -156.133    -245.961
  H        9.636    -154.465    -246.237
  P       10.157    -157.041    -242.019
  C       11.968    -157.350    -240.223
  O       10.575    -157.336    -240.497
  O       10.974    -157.753    -243.045
  O        8.629    -157.528    -242.063
  H        8.592    -158.410    -242.486
  H       12.125    -157.555    -239.185
  H       12.389    -156.397    -240.466
  H       12.440    -158.109    -240.812

 6  7  8  9  10  11  12  13  14  15  26  29  33  34 0
 6-311+G(2d,p)
 ****
 36  38  39  40  41 0
 6-311+G(2d,p)
 ****
 1  2  3  4  5  16  17  18  19  20  21  22  23  24  25 0
 3-21G
 ****
 27  28  30  31  32  35  37  42  43  44  45  46  47 0
 3-21G
 ****
 48  49 0
 3-21G
 ****


