%nproc=1
%NoSave
%Mem=1900MB
#P OB98/GEN NMR

erre ene a

0 1
  C      189.114    -751.621    -268.174
  O      189.538    -750.310    -268.559
  P      190.999    -750.009    -269.153
  C      192.177    -751.560    -270.848
  O      191.117    -750.639    -270.624
  C      192.292    -751.947    -272.324
  O      191.082    -752.574    -272.784
  C      192.531    -750.776    -273.274
  O      193.870    -750.327    -273.209
  C      192.124    -751.395    -274.610
  O      193.199    -752.167    -275.170
  C      190.949    -752.307    -274.195
  N      189.654    -751.724    -274.511
  C      189.359    -751.552    -275.871
  O      190.191    -751.834    -276.729
  N      188.132    -751.043    -276.217
  C      187.309    -750.670    -275.291
  N      186.101    -750.176    -275.691
  C      187.608    -750.744    -273.845
  C      188.787    -751.278    -273.540
  O      192.120    -750.390    -268.237
  O      191.017    -748.428    -269.426
  H      192.942    -752.372    -276.091
  H      191.926    -748.094    -269.310
  H      186.905    -750.394    -273.109
  H      189.091    -751.381    -272.498
  H      191.030    -753.283    -274.694
  H      191.846    -750.639    -275.354
  H      191.841    -749.957    -273.027
  H      193.109    -752.683    -272.416
  H      185.917    -750.139    -276.689
  H      191.979    -752.464    -270.252
  H      185.387    -749.859    -275.055
  H      193.115    -751.111    -270.498
  P      194.230    -749.007    -272.377
  C      193.983    -748.180    -269.956
  O      193.755    -749.245    -270.867
  O      193.789    -747.719    -272.990
  O      195.835    -749.061    -272.251
  H      196.178    -748.148    -272.229
  H      193.286    -748.277    -269.123
  H      193.817    -747.209    -270.441
  H      195.007    -748.238    -269.585
  H      188.109    -751.578    -267.809
  H      189.758    -751.992    -267.404
  H      189.158    -752.273    -269.021

 3  4  5  6  7  8  9  10  11  12  13  23  27  28  29  30  32 0
 6-311+G(2d,p)
 ****
 34  35 0
 6-311+G(2d,p)
 ****
 1  2  14  15  16  17  18  19  20  21  22  24  25  26 0
 3-21G
 ****
 31  33  36  37  38  39  40  41  42  43  44  45  46 0
 3-21G
 ****


