%nproc=1
%NoSave
%Mem=1900MB
#P OB98/GEN NMR

erre ene a

0 1
  C      -49.168      60.944      20.801
  O      -48.616      62.214      20.506
  P      -49.001      62.886      19.103
  C      -48.531      65.274      20.039
  O      -48.259      64.305      19.037
  C      -47.643      66.501      19.824
  O      -46.281      66.210      20.205
  C      -47.574      66.956      18.373
  O      -48.727      67.693      18.004
  C      -46.297      67.784      18.370
  O      -46.549      69.120      18.835
  C      -45.416      67.014      19.375
  N      -44.391      66.209      18.720
  C      -43.252      66.893      18.305
  O      -43.111      68.107      18.452
  N      -42.298      66.142      17.678
  C      -42.390      64.813      17.380
  O      -41.522      64.205      16.764
  C      -43.629      64.148      17.816
  C      -44.559      64.866      18.449
  O      -50.545      63.271      19.273
  O      -48.774      62.014      17.915
  H      -47.333      69.441      18.348
  H      -51.011      63.156      18.423
  H      -41.455      66.613      17.392
  H      -43.736      63.094      17.596
  H      -45.484      64.397      18.766
  H      -44.917      67.717      20.054
  H      -45.863      67.871      17.370
  H      -47.439      66.088      17.715
  H      -48.012      67.312      20.464
  H      -48.332      64.842      21.023
  H      -49.588      65.551      19.991
  P      -49.451      67.276      16.632
  C      -51.569      68.712      17.155
  O      -50.462      68.477      16.313
  O      -50.376      66.071      17.138
  O      -48.487      66.914      15.553
  H      -50.679      66.200      18.052
  H      -51.329      68.503      18.201
  H      -52.404      68.082      16.840
  H      -51.864      69.761      17.064
  H      -48.827      60.621      21.762
  H      -48.858      60.239      20.058
  H      -50.236      61.012      20.806

 3  4  5  6  7  8  9  10  11  12  13  23  28  29  30  31  32 0
 6-311+G(2d,p)
 ****
 33  34 0
 6-311+G(2d,p)
 ****
 1  2  14  15  16  17  18  19  20  21  22  24  25  26 0
 3-21G
 ****
 27  35  36  37  38  39  40  41  42  43  44  45 0
 3-21G
 ****


