%nproc=1
%NoSave
%Mem=1900MB
#P OB98/GEN NMR

erre ene a

0 1
  C     -128.681    -402.702    -268.704
  O     -127.544    -402.980    -267.912
  H     -129.473    -403.405    -268.430
  H     -128.449    -402.833    -269.763
  H     -129.038    -401.685    -268.521
  P     -126.229    -402.083    -268.122
  C     -124.802    -404.241    -268.300
  O     -125.226    -403.043    -268.935
  C     -124.815    -405.399    -269.295
  O     -126.110    -405.537    -269.924
  C     -123.840    -405.254    -270.460
  O     -122.483    -405.463    -270.101
  C     -124.368    -406.341    -271.377
  O     -123.965    -407.632    -270.884
  C     -125.896    -406.135    -271.232
  N     -126.453    -405.285    -272.283
  C     -126.960    -405.937    -273.413
  O     -126.919    -407.162    -273.503
  N     -127.471    -405.176    -274.439
  C     -127.461    -403.882    -274.356
  N     -127.973    -403.181    -275.401
  C     -126.915    -403.155    -273.192
  C     -126.437    -403.909    -272.204
  O     -125.660    -401.455    -266.890
  O     -126.642    -401.022    -269.249
  H     -122.994    -407.678    -270.974
  H     -125.863    -400.433    -269.407
  H     -126.898    -402.075    -273.181
  H     -126.013    -403.447    -271.317
  H     -126.423    -407.098    -271.238
  H     -124.001    -406.258    -272.405
  H     -123.967    -404.286    -270.958
  H     -124.631    -406.321    -268.728
  H     -128.338    -403.708    -276.186
  H     -125.477    -404.437    -267.460
  H     -127.934    -402.172    -275.454
  H     -123.784    -404.124    -267.918
  P     -121.452    -404.278    -270.437
  C     -119.896    -406.074    -271.511
  O     -120.527    -404.811    -271.629
  O     -120.489    -404.264    -269.167
  O     -122.083    -402.941    -270.699
  H     -120.753    -403.565    -268.536
  H     -119.321    -406.269    -272.392
  H     -120.639    -406.835    -271.394
  H     -119.251    -406.072    -270.658

 6  7  8  9  10  11  12  13  14  15  16  26  30  31  32  33  35 0
 6-311+G(2d,p)
 ****
 37  38 0
 6-311+G(2d,p)
 ****
 1  2  3  4  5  17  18  19  20  21  22  23  24  25 0
 3-21G
 ****
 27  28  29  34  36  39  40  41  42  43  44  45  46 0
 3-21G
 ****


