%nproc=1
%NoSave
%Mem=1900MB
#P OB98/GEN NMR

erre ene a

0 1
  C     -767.726    1677.187    -183.477
  O     -767.400    1678.202    -182.547
  H     -767.221    1677.404    -184.419
  H     -768.796    1677.157    -183.653
  H     -767.373    1676.211    -183.105
  P     -768.152    1678.240    -181.128
  C     -766.780    1676.431    -179.948
  O     -768.018    1676.740    -180.550
  C     -766.688    1674.980    -179.505
  O     -767.488    1674.798    -178.299
  C     -767.210    1673.978    -180.563
  O     -766.295    1672.895    -180.678
  C     -768.532    1673.473    -179.976
  O     -768.896    1672.198    -180.480
  C     -768.214    1673.560    -178.468
  N     -769.425    1673.558    -177.631
  C     -769.663    1672.366    -176.902
  O     -768.884    1671.402    -177.007
  N     -770.771    1672.295    -176.118
  C     -771.620    1673.270    -176.100
  N     -772.719    1673.134    -175.312
  C     -771.442    1674.517    -176.888
  C     -770.322    1674.580    -177.624
  O     -769.557    1678.774    -181.181
  O     -767.181    1679.086    -180.177
  H     -769.032    1672.285    -181.458
  H     -767.688    1679.428    -179.403
  H     -772.171    1675.297    -176.842
  H     -770.116    1675.446    -178.229
  H     -767.582    1672.725    -178.162
  H     -769.340    1674.194    -180.223
  H     -767.360    1674.433    -181.545
  H     -765.664    1674.738    -179.230
  H     -772.796    1672.273    -174.768
  H     -766.626    1677.100    -179.082
  H     -773.425    1673.838    -175.202
  H     -765.973    1676.622    -180.689
  P     -765.805    1672.554    -182.183
  C     -763.454    1673.590    -181.820
  O     -764.659    1673.607    -182.586
  O     -767.060    1673.000    -183.078
  O     -765.458    1671.103    -182.396
  H     -767.577    1672.218    -183.333
  H     -762.784    1674.336    -182.193
  H     -762.995    1672.627    -181.898
  H     -763.680    1673.795    -180.794

 6  7  8  9  10  11  12  13  14  15  16  26  30  31  32  33  35 0
 6-311+G(2d,p)
 ****
 37  38 0
 6-311+G(2d,p)
 ****
 1  2  3  4  5  17  18  19  20  21  22  23  24  25 0
 3-21G
 ****
 27  28  29  34  36  39  40  41  42  43  44  45  46 0
 3-21G
 ****


