%nproc=1
%NoSave
%Mem=1900MB
#P OB98/GEN NMR

erre ene a

0 1
  C     -329.246    -141.138     -47.699
  O     -329.326    -139.784     -48.097
  H     -329.642    -141.231     -46.685
  H     -328.207    -141.476     -47.702
  H     -329.843    -141.761     -48.370
  P     -328.699    -139.409     -49.523
  C     -326.442    -138.587     -48.528
  O     -327.106    -139.518     -49.375
  C     -325.376    -139.311     -47.711
  O     -326.006    -140.231     -46.788
  C     -324.427    -140.163     -48.544
  O     -323.419    -139.398     -49.180
  C     -323.865    -141.089     -47.480
  O     -322.764    -140.491     -46.781
  C     -325.071    -141.300     -46.544
  N     -325.678    -142.615     -46.732
  C     -325.660    -143.451     -45.617
  O     -325.171    -143.126     -44.536
  N     -326.190    -144.697     -45.800
  C     -326.680    -145.195     -46.973
  O     -327.090    -146.345     -47.081
  C     -326.658    -144.275     -48.120
  C     -326.163    -143.044     -47.950
  O     -328.965    -137.835     -49.637
  O     -329.273    -140.158     -50.680
  H     -329.682    -137.668     -50.276
  H     -322.716    -140.945     -45.916
  H     -326.188    -145.319     -45.005
  H     -327.038    -144.637     -49.065
  H     -326.126    -142.350     -48.783
  H     -324.761    -141.213     -45.496
  H     -323.502    -142.013     -47.921
  H     -324.994    -140.759     -49.271
  H     -324.815    -138.568     -47.131
  H     -327.162    -138.132     -47.843
  H     -325.998    -137.800     -49.145
  P     -323.406    -139.369     -50.786
  C     -320.824    -139.871     -50.700
  O     -322.102    -140.191     -51.227
  O     -323.031    -137.836     -51.048
  O     -324.693    -139.820     -51.391
  H     -322.516    -137.458     -50.313
  H     -320.091    -140.530     -51.116
  H     -320.839    -139.981     -49.636
  H     -320.578    -138.860     -50.951

 6  7  8  9  10  11  12  13  14  15  16  27  31  32  33  34  35 0
 6-311+G(2d,p)
 ****
 36  37 0
 6-311+G(2d,p)
 ****
 1  2  3  4  5  17  18  19  20  21  22  23  24  25 0
 3-21G
 ****
 26  28  29  30  38  39  40  41  42  43  44  45 0
 3-21G
 ****


