%nproc=1
%NoSave
%Mem=1900MB
#P OB98/GEN NMR

erre ene a

0 1
  C      618.744     223.714     132.168
  O      617.943     222.931     131.311
  H      619.706     223.899     131.679
  H      618.927     223.192     133.110
  H      618.267     224.678     132.362
  P      616.487     222.484     131.816
  C      617.340     220.440     133.144
  O      616.561     220.897     132.045
  C      617.159     218.931     133.326
  O      617.907     218.470     134.468
  C      615.715     218.494     133.549
  O      615.016     218.407     132.316
  C      615.941     217.136     134.190
  O      616.290     216.169     133.180
  C      617.146     217.411     135.104
  N      616.131     215.881     139.838
  C      616.293     215.135     138.689
  N      616.140     213.799     138.805
  N      616.577     215.662     137.522
  C      616.636     217.010     137.542
  C      616.474     217.856     138.614
  C      616.231     217.258     139.912
  O      616.102     217.879     140.970
  N      616.516     219.169     138.230
  C      616.757     219.124     136.931
  N      616.827     217.834     136.459
  O      615.337     222.923     130.965
  O      616.395     223.064     133.305
  H      615.456     215.850     132.791
  H      615.992     223.956     133.307
  H      615.908     215.415     140.713
  H      616.881     219.987     136.294
  H      617.802     216.536     135.194
  H      615.045     216.756     134.701
  H      615.773     213.357     139.633
  H      615.205     219.150     134.262
  H      616.200     213.247     137.954
  H      617.587     218.431     132.441
  H      617.003     220.972     134.033
  H      618.401     220.663     132.975
  P      613.859     219.453     131.926
  C      612.221     217.897     133.199
  O      612.482     218.610     132.010
  O      614.067     220.182     130.659
  O      613.732     220.393     133.221
  H      614.386     221.142     133.208
  H      611.283     217.390     133.112
  H      612.184     218.579     134.023
  H      612.999     217.181     133.364

 6  7  8  9  10  11  12  13  14  15  26  29  33  34 0
 6-311+G(2d,p)
 ****
 36  38  39  40  41 0
 6-311+G(2d,p)
 ****
 1  2  3  4  5  16  17  18  19  20  21  22  23  24  25 0
 3-21G
 ****
 27  28  30  31  32  35  37  42  43  44  45  46  47 0
 3-21G
 ****
 48  49 0
 3-21G
 ****


