%nproc=1
%NoSave
%Mem=1900MB
#P OB98/GEN NMR

erre ene a

0 1
  C     -126.234    -916.749    -404.764
  O     -127.074    -917.878    -404.948
  P     -126.586    -919.288    -404.383
  C     -128.994    -920.198    -404.770
  O     -127.598    -920.398    -404.973
  C     -129.786    -920.837    -405.917
  O     -129.462    -922.235    -406.031
  C     -131.296    -920.798    -405.706
  O     -131.854    -919.531    -406.067
  C     -131.741    -921.871    -406.678
  O     -131.777    -921.353    -408.026
  C     -130.644    -922.924    -406.542
  N     -132.039    -927.785    -406.233
  C     -131.560    -927.058    -407.297
  N     -131.509    -927.722    -408.493
  N     -131.168    -925.825    -407.253
  C     -131.284    -925.288    -406.007
  C     -131.760    -925.891    -404.845
  C     -132.188    -927.268    -404.935
  O     -132.679    -927.935    -404.030
  N     -131.715    -925.039    -403.772
  C     -131.241    -923.913    -404.270
  N     -131.004    -923.996    -405.622
  O     -126.965    -919.228    -402.836
  O     -125.134    -919.586    -404.601
  H     -132.288    -920.522    -408.006
  H     -126.487    -919.917    -402.334
  H     -132.332    -928.746    -406.335
  H     -131.068    -923.012    -403.693
  H     -130.376    -923.380    -407.502
  H     -132.753    -922.245    -406.476
  H     -131.856    -928.663    -408.625
  H     -131.583    -921.090    -404.702
  H     -131.205    -927.201    -409.319
  H     -129.501    -920.339    -406.842
  H     -129.212    -919.130    -404.726
  H     -129.287    -920.653    -403.801
  P     -133.031    -918.954    -405.134
  C     -133.033    -916.954    -406.797
  O     -133.787    -917.865    -406.026
  O     -132.225    -918.091    -404.052
  O     -133.875    -920.014    -404.508
  H     -132.722    -918.032    -403.222
  H     -133.682    -916.485    -407.537
  H     -132.220    -917.487    -407.331
  H     -132.594    -916.183    -406.152
  H     -126.697    -915.886    -405.195
  H     -125.292    -916.924    -405.241
  H     -126.080    -916.586    -403.718

 3  4  5  6  7  8  9  10  11  12  23  26  30  31 0
 6-311+G(2d,p)
 ****
 33  35  36  37  38 0
 6-311+G(2d,p)
 ****
 1  2  13  14  15  16  17  18  19  20  21  22  24  25 0
 3-21G
 ****
 27  28  29  32  34  39  40  41  42  43  44  45  46  47  48  49 0
 3-21G
 ****


