%nproc=1
%NoSave
%Mem=1900MB
#P OB98/GEN NMR

erre ene a

0 1
  C      270.726      -0.405     108.324
  O      271.945      -0.334     109.043
  P      272.788      -1.692     109.198
  C      271.484      -2.690     111.218
  O      271.801      -2.781     109.835
  C      271.557      -4.070     111.867
  O      270.466      -4.893     111.407
  C      272.821      -4.856     111.545
  O      273.930      -4.368     112.283
  C      272.378      -6.265     111.920
  O      272.436      -6.438     113.345
  C      270.914      -6.275     111.446
  N      270.322     -10.653     108.860
  C      270.495     -10.400     110.176
  N      270.667      -9.209     110.786
  C      270.643      -8.209     109.890
  C      270.498      -8.315     108.517
  C      270.329      -9.609     107.999
  N      270.158      -9.863     106.655
  N      270.547      -7.073     107.921
  C      270.707      -6.229     108.919
  N      270.756      -6.866     110.129
  O      273.795      -1.360     110.393
  O      273.509      -2.129     107.962
  H      271.754      -5.856     113.736
  H      274.653      -1.809     110.263
  H      270.492     -11.270     110.827
  H      270.786      -5.156     108.817
  H      270.253      -6.816     112.133
  H      272.997      -7.046     111.467
  H      273.040      -4.805     110.471
  H      271.455      -3.940     112.952
  H      270.469      -2.298     111.335
  H      270.192     -10.825     106.354
  H      270.303      -9.101     106.006
  H      272.180      -1.995     111.697
  P      275.392      -4.824     111.802
  C      275.237      -7.130     112.922
  O      275.278      -6.423     111.696
  O      276.249      -4.622     113.135
  O      275.899      -4.126     110.588
  H      275.817      -5.020     113.911
  H      275.107      -8.193     112.708
  H      274.398      -6.784     113.533
  H      276.177      -6.992     113.465
  H      270.271       0.563     108.297
  H      270.067      -1.096     108.807
  H      270.920      -0.736     107.325

 3  4  5  6  7  8  9  10  11  12  22  25  29  30  31  32 0
 6-311+G(2d,p)
 ****
 33  36  37 0
 6-311+G(2d,p)
 ****
 1  2  13  14  15  16  17  18  19  20  21  23  24  26 0
 3-21G
 ****
 27  28  34  35  38  39  40  41  42  43  44  45  46  47  48 0
 3-21G
 ****


