%nproc=1
%NoSave
%Mem=1900MB
#P OB98/GEN NMR

erre ene a

0 1
  C     -386.097      87.245     -84.697
  O     -385.198      88.309     -84.446
  P     -383.642      88.013     -84.216
  C     -382.767      88.824     -86.492
  O     -382.797      89.059     -85.088
  C     -381.910      89.874     -87.192
  O     -382.644      91.110     -87.356
  C     -380.654      90.260     -86.428
  O     -379.669      89.245     -86.476
  C     -380.273      91.558     -87.128
  O     -379.584      91.293     -88.358
  C     -381.661      92.173     -87.412
  N     -381.991      93.250     -86.492
  C     -381.540      94.525     -86.851
  O     -380.835      94.679     -87.849
  N     -381.892      95.590     -86.059
  C     -382.528      95.387     -84.949
  N     -382.901      96.483     -84.238
  C     -382.879      94.037     -84.456
  C     -382.603      93.029     -85.280
  O     -383.234      86.589     -84.380
  O     -383.373      88.508     -82.716
  H     -382.907      87.801     -82.231
  H     -378.816      90.733     -88.131
  H     -383.347      93.917     -83.491
  H     -382.846      92.007     -85.012
  H     -381.701      92.561     -88.438
  H     -379.617      92.185     -86.515
  H     -380.909      90.471     -85.383
  H     -381.651      89.493     -88.190
  H     -382.660      97.391     -84.616
  H     -383.790      88.866     -86.875
  H     -383.658      96.459     -83.557
  H     -382.373      87.819     -86.679
  P     -378.743      89.070     -85.178
  C     -380.276      87.984     -83.397
  O     -379.275      87.791     -84.375
  O     -379.168      90.305     -84.252
  O     -377.275      89.081     -85.455
  H     -378.388      90.645     -83.777
  H     -380.765      87.025     -83.204
  H     -381.028      88.704     -83.729
  H     -379.817      88.337     -82.470
  H     -387.085      87.635     -84.824
  H     -386.085      86.566     -83.870
  H     -385.800      86.730     -85.587

 3  4  5  6  7  8  9  10  11  12  13  24  27  28  29  30  32 0
 6-311+G(2d,p)
 ****
 34  35 0
 6-311+G(2d,p)
 ****
 1  2  14  15  16  17  18  19  20  21  22  23  25  26 0
 3-21G
 ****
 31  33  36  37  38  39  40  41  42  43  44  45  46 0
 3-21G
 ****


