%nproc=1
%NoSave
%Mem=1900MB
#P OB98/GEN NMR

erre ene a

0 1
  C     -226.062    -330.129    -367.109
  O     -225.416    -331.148    -367.845
  H     -227.047    -330.491    -366.805
  H     -226.191    -329.232    -367.720
  H     -225.489    -329.889    -366.209
  P     -223.991    -330.824    -368.505
  C     -222.563    -331.709    -366.539
  O     -222.969    -330.578    -367.296
  C     -221.036    -331.854    -366.550
  O     -220.456    -330.809    -365.717
  C     -220.533    -333.202    -366.004
  O     -219.304    -333.505    -366.674
  C     -220.279    -332.861    -364.549
  O     -219.507    -333.846    -363.915
  C     -219.670    -331.462    -364.698
  N     -219.667    -330.717    -363.448
  C     -218.821    -331.200    -362.444
  O     -218.142    -332.208    -362.635
  N     -218.790    -330.543    -361.240
  C     -219.585    -329.541    -361.032
  N     -219.515    -328.943    -359.808
  C     -220.534    -329.037    -362.047
  C     -220.519    -329.662    -363.221
  O     -223.989    -329.765    -369.556
  O     -223.513    -332.233    -369.101
  H     -219.481    -333.704    -362.943
  H     -223.615    -332.231    -370.071
  H     -221.187    -328.207    -361.816
  H     -221.182    -329.368    -364.029
  H     -218.636    -331.525    -365.069
  H     -221.225    -332.799    -363.997
  H     -221.254    -334.014    -366.147
  H     -220.674    -331.683    -367.572
  H     -218.856    -329.328    -359.141
  H     -223.027    -332.592    -366.990
  H     -220.097    -328.169    -359.527
  H     -222.913    -331.618    -365.505
  P     -219.023    -334.921    -367.377
  C     -219.256    -333.869    -369.722
  O     -219.658    -334.919    -368.847
  O     -219.409    -336.101    -366.546
  O     -217.440    -334.936    -367.658
  H     -217.117    -335.854    -367.613
  H     -219.749    -333.982    -370.665
  H     -218.197    -333.911    -369.866
  H     -219.521    -332.926    -369.292

 6  7  8  9  10  11  12  13  14  15  16  26  30  31  32  33  35 0
 6-311+G(2d,p)
 ****
 37  38 0
 6-311+G(2d,p)
 ****
 1  2  3  4  5  17  18  19  20  21  22  23  24  25 0
 3-21G
 ****
 27  28  29  34  36  39  40  41  42  43  44  45  46 0
 3-21G
 ****


