%nproc=1
%NoSave
%Mem=1900MB
#P OB98/GEN NMR

erre ene a

0 1
  C     -889.460     -35.759     224.460
  O     -890.810     -35.571     224.888
  P     -891.560     -36.795     225.601
  C     -893.090     -35.051     226.735
  O     -893.020     -36.295     226.036
  C     -894.440     -34.899     227.445
  O     -895.540     -35.001     226.515
  C     -894.690     -35.959     228.496
  O     -893.900     -35.731     229.659
  C     -896.190     -35.849     228.687
  O     -896.520     -34.783     229.584
  C     -896.690     -35.509     227.262
  N     -897.300     -36.638     226.583
  C     -898.320     -37.274     227.262
  O     -898.650     -36.917     228.402
  N     -898.950     -38.341     226.663
  C     -898.590     -38.727     225.475
  N     -899.260     -39.789     224.933
  C     -897.500     -38.074     224.728
  C     -896.900     -37.055     225.330
  O     -890.780     -37.513     226.660
  O     -891.890     -37.776     224.354
  H     -896.170     -33.961     229.174
  H     -891.910     -38.686     224.682
  H     -897.250     -38.433     223.728
  H     -896.100     -36.529     224.835
  H     -897.420     -34.706     227.302
  H     -896.620     -36.770     229.114
  H     -894.440     -36.964     228.079
  H     -894.470     -33.912     227.898
  H     -900.000     -40.214     225.481
  H     -892.960     -34.231     226.008
  H     -899.080     -40.108     224.001
  H     -892.270     -34.990     227.436
  P     -892.680     -36.732     229.948
  C     -891.520     -34.641     230.983
  O     -891.750     -36.041     231.073
  O     -891.800     -36.601     228.619
  O     -893.070     -38.144     230.220
  H     -891.390     -37.469     228.423
  H     -891.150     -34.291     231.946
  H     -892.440     -34.099     230.742
  H     -890.760     -34.445     230.217
  H     -889.101     -34.859     224.006
  H     -889.419     -36.558     223.749
  H     -888.849     -36.001     225.304

 3  4  5  6  7  8  9  10  11  12  13  23  27  28  29  30  32 0
 6-311+G(2d,p)
 ****
 34  35 0
 6-311+G(2d,p)
 ****
 1  2  14  15  16  17  18  19  20  21  22  24  25  26 0
 3-21G
 ****
 31  33  36  37  38  39  40  41  42  43  44  45  46 0
 3-21G
 ****


