%nproc=1
%NoSave
%Mem=1900MB
#P OB98/GEN NMR

erre ene a

0 1
  C      935.297     873.182    -229.289
  O      935.435     872.169    -228.293
  P      936.179     870.818    -228.695
  C      938.524     871.255    -227.577
  O      937.761     871.149    -228.760
  C      939.945     870.695    -227.781
  O      939.864     869.255    -227.855
  C      940.638     871.129    -229.079
  O      942.044     870.915    -228.945
  C      940.070     870.145    -230.075
  O      940.867     870.085    -231.275
  C      939.976     868.845    -229.254
  N      938.853     867.975    -229.625
  C      938.870     867.334    -230.868
  O      939.789     867.445    -231.682
  N      937.788     866.576    -231.177
  C      936.697     866.353    -230.367
  O      935.698     865.738    -230.731
  C      936.780     866.930    -229.020
  C      937.832     867.708    -228.691
  O      935.767     870.598    -230.238
  O      935.833     869.652    -227.849
  H      940.308     869.609    -231.937
  H      935.118     869.880    -230.316
  H      937.745     866.158    -232.102
  H      935.984     866.721    -228.324
  H      937.891     868.156    -227.721
  H      940.909     868.245    -229.363
  H      939.062     870.464    -230.385
  H      940.442     872.170    -229.365
  H      940.558     870.938    -226.921
  H      938.024     870.723    -226.768
  H      938.592     872.310    -227.278
  P      942.977     872.191    -228.628
  C      943.764     871.268    -226.356
  O      943.078     872.300    -227.044
  O      942.641     873.449    -229.372
  O      944.441     871.662    -229.028
  H      945.031     872.419    -229.178
  H      944.218     871.673    -225.445
  H      944.547     870.836    -226.994
  H      943.043     870.478    -226.078
  H      934.781     874.022    -228.874
  H      934.740     872.795    -230.117
  H      936.266     873.488    -229.623

 3  4  5  6  7  8  9  10  11  12  13  23  28  29  30  31  32 0
 6-311+G(2d,p)
 ****
 33  34 0
 6-311+G(2d,p)
 ****
 1  2  14  15  16  17  18  19  20  21  22  24  25  26  27 0
 3-21G
 ****
 35  36  37  38  39  40  41  42  43  44  45 0
 3-21G
 ****


