%nproc=1
%NoSave
%Mem=1900MB
#P OB98/GEN NMR

erre ene a

0 1
  C     -659.624    -134.883     269.659
  O     -660.078    -135.992     270.407
  P     -659.153    -137.280     270.618
  C     -659.982    -138.533     268.462
  O     -658.921    -137.967     269.190
  C     -659.477    -138.925     267.067
  O     -659.171    -137.752     266.299
  C     -658.215    -139.781     267.149
  O     -658.543    -141.167     267.105
  C     -657.414    -139.308     265.948
  O     -657.876    -139.959     264.745
  C     -657.766    -137.801     265.916
  N     -657.014    -136.893     266.795
  C     -656.668    -135.624     266.337
  O     -656.973    -135.182     265.233
  N     -655.904    -134.873     267.201
  C     -655.525    -135.242     268.460
  O     -654.656    -134.667     269.115
  C     -656.151    -136.461     268.980
  C     -656.833    -137.233     268.130
  O     -660.118    -138.310     271.365
  O     -657.886    -137.041     271.368
  H     -658.820    -139.744     264.651
  H     -659.945    -138.301     272.325
  H     -655.535    -134.005     266.821
  H     -655.983    -136.723     270.012
  H     -657.269    -138.162     268.485
  H     -657.690    -137.408     264.892
  H     -656.359    -139.571     266.047
  H     -657.650    -139.542     268.063
  H     -660.273    -139.482     266.541
  H     -660.812    -137.823     268.378
  H     -660.370    -139.412     268.985
  P     -657.415    -142.253     267.426
  C     -657.013    -142.636     264.925
  O     -656.437    -142.240     266.151
  O     -657.912    -143.599     267.842
  O     -656.551    -141.555     268.593
  H     -656.840    -141.891     269.464
  H     -656.308    -142.424     264.123
  H     -657.940    -142.104     264.745
  H     -657.199    -143.721     264.945
  H     -660.386    -134.132     269.637
  H     -659.400    -135.194     268.660
  H     -658.742    -134.483     270.114

 3  4  5  6  7  8  9  10  11  12  13  23  28  29  30  31  32 0
 6-311+G(2d,p)
 ****
 33  34 0
 6-311+G(2d,p)
 ****
 1  2  14  15  16  17  18  19  20  21  22  24  25  26  27 0
 3-21G
 ****
 35  36  37  38  39  40  41  42  43  44  45 0
 3-21G
 ****


