%nproc=1
%NoSave
%Mem=1900MB
#P OB98/GEN NMR

erre ene a

0 1
  C     -221.734    1055.730     475.960
  O     -222.697    1056.013     474.965
  H     -220.742    1055.697     475.494
  H     -221.939    1054.757     476.411
  H     -221.735    1056.508     476.734
  P     -224.209    1056.265     475.451
  C     -225.558    1058.398     476.061
  O     -224.470    1057.844     475.331
  C     -226.454    1059.229     475.141
  O     -225.716    1060.403     474.707
  C     -226.917    1058.478     473.891
  O     -228.260    1058.855     473.602
  C     -225.994    1059.001     472.790
  O     -226.577    1058.892     471.496
  C     -225.740    1060.440     473.264
  N     -224.502    1060.973     472.706
  C     -224.535    1061.383     471.367
  O     -225.579    1061.267     470.715
  N     -223.391    1061.847     470.786
  C     -222.279    1061.833     471.460
  N     -221.169    1062.276     470.802
  C     -222.174    1061.346     472.846
  C     -223.316    1060.943     473.411
  O     -224.138    1056.021     477.032
  O     -225.239    1055.410     474.793
  H     -226.691    1057.937     471.285
  H     -224.974    1055.658     477.375
  H     -221.220    1061.330     473.349
  H     -223.341    1060.572     474.428
  H     -226.574    1061.099     472.966
  H     -225.061    1058.429     472.796
  H     -226.855    1057.385     473.994
  H     -227.312    1059.589     475.722
  H     -221.268    1062.585     469.853
  H     -225.160    1059.045     476.853
  H     -220.240    1062.271     471.214
  H     -226.138    1057.588     476.527
  P     -229.305    1057.659     473.351
  C     -229.760    1055.573     474.827
  O     -229.642    1056.983     474.771
  O     -228.430    1056.557     472.600
  O     -230.497    1058.066     472.545
  H     -228.696    1056.503     471.656
  H     -229.984    1055.273     475.829
  H     -228.838    1055.125     474.519
  H     -230.546    1055.255     474.175

 6  7  8  9  10  11  12  13  14  15  16  26  30  31  32  33  35 0
 6-311+G(2d,p)
 ****
 37  38 0
 6-311+G(2d,p)
 ****
 1  2  3  4  5  17  18  19  20  21  22  23  24  25 0
 3-21G
 ****
 27  28  29  34  36  39  40  41  42  43  44  45  46 0
 3-21G
 ****


