%nproc=1
%NoSave
%Mem=1900MB
#P OB98/GEN NMR

erre ene a

0 1
  C     -108.012    -770.372    1084.500
  O     -107.028    -770.651    1085.473
  P     -106.492    -772.140    1085.734
  C     -104.340    -772.146    1084.305
  O     -104.890    -772.018    1085.609
  C     -103.067    -771.312    1084.173
  O     -103.420    -769.919    1084.287
  C     -102.003    -771.556    1085.245
  O     -101.116    -772.646    1084.978
  C     -101.220    -770.243    1085.155
  O     -100.324    -770.317    1084.016
  C     -102.323    -769.233    1084.907
  N     -101.654    -765.199    1088.021
  C     -101.068    -765.533    1086.834
  N     -101.303    -766.639    1086.080
  C     -102.240    -767.421    1086.612
  C     -102.927    -767.177    1087.802
  C     -102.606    -766.027    1088.531
  N     -103.197    -765.680    1089.721
  N     -103.835    -768.223    1088.078
  C     -103.700    -769.017    1087.027
  N     -102.768    -768.570    1086.110
  O     -107.145    -773.181    1084.880
  O     -106.729    -772.381    1087.292
  H     -100.815    -770.008    1083.227
  H     -106.666    -773.332    1087.487
  H     -100.350    -764.849    1086.450
  H     -104.243    -769.949    1086.890
  H     -102.019    -768.418    1084.185
  H     -100.587    -770.080    1086.014
  H     -102.439    -771.632    1086.238
  H     -102.651    -771.479    1083.139
  H     -105.080    -771.801    1083.573
  H     -103.007    -764.729    1090.116
  H     -104.012    -766.188    1090.024
  H     -104.156    -773.215    1084.092
  P     -100.179    -773.123    1086.187
  C     -101.826    -774.888    1087.240
  O     -100.628    -774.623    1086.517
  O     -100.156    -772.206    1087.359
  O      -98.763    -773.324    1085.466
  H      -98.710    -774.052    1084.807
  H     -102.019    -775.932    1087.228
  H     -102.668    -774.367    1086.794
  H     -101.702    -774.570    1088.297
  H     -108.220    -769.322    1084.494
  H     -108.906    -770.911    1084.732
  H     -107.656    -770.671    1083.536

 3  4  5  6  7  8  9  10  11  12  22  25  29  30  31  32 0
 6-311+G(2d,p)
 ****
 33  36  37 0
 6-311+G(2d,p)
 ****
 1  2  13  14  15  16  17  18  19  20  21  23  24  26 0
 3-21G
 ****
 27  28  34  35  38  39  40  41  42  43  44  45  46  47  48 0
 3-21G
 ****


