%nproc=1
%NoSave
%Mem=1900MB
#P OB98/GEN NMR

erre ene a

0 1
  C       39.779    -245.672      16.463
  O       39.311    -244.933      15.353
  H       40.203    -244.973      17.191
  H       40.564    -246.362      16.148
  H       38.963    -246.220      16.939
  P       38.512    -245.697      14.194
  C       40.557    -246.475      12.827
  O       39.467    -246.867      13.649
  C       41.226    -247.699      12.193
  O       42.162    -247.244      11.182
  C       41.999    -248.564      13.192
  O       41.847    -249.938      12.838
  C       43.439    -248.136      12.988
  O       44.365    -249.159      13.349
  C       43.457    -247.792      11.500
  N       47.133    -246.682       8.216
  C       46.189    -247.689       8.189
  N       46.241    -248.541       7.142
  N       45.275    -247.850       9.110
  C       45.327    -246.913      10.087
  C       46.211    -245.869      10.226
  C       47.231    -245.715       9.211
  O       48.103    -244.852       9.190
  N       45.953    -245.146      11.364
  C       44.917    -245.754      11.911
  N       44.507    -246.838      11.181
  O       37.943    -244.811      13.132
  O       37.364    -246.496      14.967
  H       44.301    -249.271      14.323
  H       36.497    -246.068      14.845
  H       47.821    -246.610       7.487
  H       44.430    -245.455      12.830
  H       43.625    -248.673      10.869
  H       43.653    -247.250      13.599
  H       46.902    -248.460       6.385
  H       41.664    -248.411      14.217
  H       45.540    -249.269       7.082
  H       40.458    -248.286      11.676
  H       41.281    -245.940      13.449
  H       40.194    -245.798      12.045
  P       40.846    -250.857      13.691
  C       42.503    -252.319      15.002
  O       41.562    -251.258      15.072
  O       40.230    -251.995      12.947
  O       39.726    -249.811      14.169
  H       38.862    -250.267      14.196
  H       42.913    -252.497      15.974
  H       43.289    -252.054      14.326
  H       42.016    -253.205      14.653

 6  7  8  9  10  11  12  13  14  15  26  29  33  34 0
 6-311+G(2d,p)
 ****
 36  38  39  40  41 0
 6-311+G(2d,p)
 ****
 1  2  3  4  5  16  17  18  19  20  21  22  23  24  25 0
 3-21G
 ****
 27  28  30  31  32  35  37  42  43  44  45  46  47 0
 3-21G
 ****
 48  49 0
 3-21G
 ****


