%nproc=1
%NoSave
%Mem=1900MB
#P OB98/GEN NMR

erre ene a

0 1
  C     -337.113     489.185     859.766
  O     -337.290     489.079     861.163
  H     -336.057     489.048     859.532
  H     -337.425     490.176     859.417
  H     -337.694     488.409     859.256
  P     -338.762     489.351     861.733
  C     -339.293     486.928     862.508
  O     -339.024     488.273     862.892
  C     -339.286     486.040     863.752
  O     -337.988     486.110     864.392
  C     -340.292     486.441     864.816
  O     -341.616     486.015     864.515
  C     -339.724     485.745     866.035
  O     -340.148     484.375     866.112
  C     -338.202     485.847     865.799
  N     -337.586     486.863     866.649
  C     -336.239     486.667     866.942
  O     -335.586     485.718     866.521
  N     -335.676     487.598     867.772
  C     -336.327     488.642     868.367
  O     -335.763     489.409     869.150
  C     -337.751     488.782     868.036
  C     -338.309     487.898     867.208
  O     -339.713     488.869     860.541
  O     -339.034     490.766     862.125
  H     -340.096     489.648     860.090
  H     -339.644     483.981     866.847
  H     -334.697     487.481     867.992
  H     -338.294     489.596     868.492
  H     -339.362     487.972     866.954
  H     -337.718     484.882     866.013
  H     -340.046     486.236     866.948
  H     -340.257     487.530     864.975
  H     -339.454     484.999     863.432
  H     -338.521     486.580     861.815
  H     -340.264     486.891     862.002
  P     -342.833     486.845     865.149
  C     -343.248     488.687     863.313
  O     -343.641     487.456     863.904
  O     -342.043     488.089     865.782
  O     -343.637     486.048     866.116
  H     -341.219     488.269     865.303
  H     -343.908     488.921     862.504
  H     -342.247     488.602     862.944
  H     -343.293     489.465     864.046

 6  7  8  9  10  11  12  13  14  15  16  27  31  32  33  34  35 0
 6-311+G(2d,p)
 ****
 36  37 0
 6-311+G(2d,p)
 ****
 1  2  3  4  5  17  18  19  20  21  22  23  24  25 0
 3-21G
 ****
 26  28  29  30  38  39  40  41  42  43  44  45 0
 3-21G
 ****


