%nproc=1
%NoSave
%Mem=1900MB
#P OB98/GEN NMR

erre ene a

0 1
  C      -19.750     -73.762      93.230
  O      -21.000     -74.425      93.282
  P      -22.163     -73.794      94.186
  C      -23.000     -71.988      92.472
  O      -22.352     -72.278      93.697
  C      -24.272     -71.174      92.725
  O      -25.322     -72.071      93.184
  C      -24.121     -70.068      93.777
  O      -24.948     -68.973      93.363
  C      -24.685     -70.716      95.030
  O      -25.106     -69.768      95.997
  C      -25.821     -71.553      94.432
  N      -26.262     -72.644      95.301
  C      -26.863     -72.311      96.509
  O      -27.024     -71.156      96.901
  N      -27.255     -73.369      97.291
  C      -27.050     -74.689      97.018
  O      -27.407     -75.594      97.762
  C      -26.369     -74.980      95.750
  C      -26.023     -73.961      94.961
  O      -21.422     -73.660      95.596
  O      -23.413     -74.607      94.206
  H      -20.480     -73.429      95.509
  H      -25.719     -70.211      96.610
  H      -27.727     -73.150      98.153
  H      -26.176     -76.016      95.504
  H      -25.517     -74.151      94.020
  H      -26.676     -70.908      94.192
  H      -23.920     -71.352      95.486
  H      -23.088     -69.733      93.887
  H      -24.604     -70.751      91.769
  H      -23.268     -72.922      91.971
  H      -22.311     -71.442      91.820
  P      -24.520     -67.488      93.812
  C      -24.427     -66.073      91.612
  O      -23.735     -66.824      92.584
  O      -23.340     -67.833      94.845
  O      -25.610     -66.676      94.431
  H      -22.702     -68.473      94.488
  H      -23.709     -65.445      91.079
  H      -25.182     -65.428      92.068
  H      -24.905     -66.749      90.897
  H      -19.086     -74.303      92.589
  H      -19.333     -73.709      94.214
  H      -19.887     -72.772      92.847

 3  4  5  6  7  8  9  10  11  12  13  24  28  29  30  31  32 0
 6-311+G(2d,p)
 ****
 33  34 0
 6-311+G(2d,p)
 ****
 1  2  14  15  16  17  18  19  20  21  22  23  25  26  27 0
 3-21G
 ****
 35  36  37  38  39  40  41  42  43  44  45 0
 3-21G
 ****


