%nproc=1
%NoSave
%Mem=1900MB
#P OB98/GEN NMR

erre ene a

0 1
  C       28.565    -698.859     182.685
  O       27.137    -698.881     182.609
  P       26.398    -697.452     182.663
  C       25.042    -697.956     180.505
  O       25.003    -697.582     181.882
  C       23.649    -697.946     179.874
  O       22.881    -699.063     180.389
  C       22.828    -696.672     180.136
  O       22.067    -696.367     178.965
  C       21.840    -697.109     181.220
  O       20.685    -696.290     181.251
  C       21.599    -698.554     180.787
  N       17.379    -699.838     183.282
  C       17.542    -699.045     182.169
  N       16.409    -698.497     181.645
  N       18.688    -698.810     181.593
  C       19.730    -699.443     182.197
  C       19.703    -700.258     183.318
  C       18.423    -700.477     183.951
  O       18.224    -701.117     184.973
  N       20.954    -700.719     183.626
  C       21.740    -700.171     182.719
  N       21.041    -699.381     181.838
  O       27.300    -696.539     181.705
  O       26.308    -696.875     184.039
  H       20.249    -696.390     180.385
  H       27.615    -695.753     182.191
  H       16.468    -699.969     183.690
  H       22.816    -700.299     182.669
  H       20.923    -698.601     179.927
  H       22.344    -697.057     182.191
  H       15.484    -698.692     181.996
  H       23.420    -695.808     180.432
  H       16.497    -697.954     180.795
  H       23.768    -698.101     178.793
  H       25.471    -698.956     180.416
  H       25.706    -697.259     179.975
  P       21.698    -694.819     178.738
  C       21.608    -694.917     176.132
  O       20.894    -694.767     177.350
  O       23.110    -694.150     178.373
  O       21.049    -694.164     179.903
  H       23.121    -693.217     178.626
  H       22.630    -695.262     176.291
  H       21.632    -693.950     175.615
  H       21.083    -695.642     175.510
  H       28.940    -699.860     182.640
  H       28.866    -698.407     183.607
  H       28.957    -698.294     181.865

 3  4  5  6  7  8  9  10  11  12  23  26  30  31  33  0
 6-311+G(2d,p)
 ****
 35  36  37  38 0
 6-311+G(2d,p)
 ****
 1  2  13  14  15  16  17  18  19  20  21  22  24  25  27  28  29 0
 3-21G
 ****
 32  34  39  40  41  42  43  44  45  46  47  48  49 0
 3-21G
 ****


