%nproc=1
%NoSave
%Mem=1900MB
#P OB98/GEN NMR

erre ene a

0 1
  C     -439.430     -12.557     -42.007
  O     -439.222     -13.869     -42.481
  P     -437.792     -14.336     -43.031
  C     -436.681     -14.180     -40.709
  O     -436.688     -13.699     -42.050
  C     -435.350     -13.847     -40.029
  O     -435.479     -14.093     -38.593
  C     -434.179     -14.705     -40.555
  O     -433.041     -13.957     -40.988
  C     -433.931     -15.669     -39.404
  O     -432.641     -16.251     -39.414
  C     -434.291     -14.807     -38.194
  N     -434.501     -15.595     -36.984
  C     -433.693     -15.302     -35.885
  O     -432.844     -14.420     -35.866
  N     -433.858     -16.106     -34.791
  C     -434.640     -17.223     -34.722
  O     -434.659     -17.952     -33.742
  C     -435.436     -17.504     -35.927
  C     -435.354     -16.687     -36.977
  O     -437.546     -14.081     -44.477
  O     -437.738     -15.886     -42.623
  H     -432.641     -16.988     -38.772
  H     -437.815     -16.061     -41.670
  H     -433.280     -15.907     -33.984
  H     -436.056     -18.390     -35.909
  H     -435.926     -16.871     -37.879
  H     -433.519     -14.060     -37.985
  H     -434.651     -16.489     -39.497
  H     -434.476     -15.272     -41.443
  H     -435.152     -12.781     -40.180
  H     -436.817     -15.264     -40.722
  H     -437.526     -13.749     -40.155
  P     -431.853     -14.530     -41.892
  C     -432.310     -12.852     -43.831
  O     -432.190     -14.201     -43.425
  O     -431.471     -15.945     -41.621
  O     -430.632     -13.542     -41.569
  H     -429.790     -14.019     -41.678
  H     -433.001     -12.801     -44.675
  H     -431.335     -12.482     -44.146
  H     -432.698     -12.219     -43.022
  H     -440.446     -12.450     -41.688
  H     -439.227     -11.858     -42.791
  H     -438.775     -12.368     -41.182

 3  4  5  6  7  8  9  10  11  12  13  23  28  29  30  31  32 0
 6-311+G(2d,p)
 ****
 33  34 0
 6-311+G(2d,p)
 ****
 1  2  14  15  16  17  18  19  20  21  22  24  25  26  27 0
 3-21G
 ****
 35  36  37  38  39  40  41  42  43  44  45 0
 3-21G
 ****


