%nproc=1
%NoSave
%Mem=1900MB
#P OB98/GEN NMR

erre ene a

0 1
  C       35.659      83.249     158.085
  O       35.480      82.710     156.787
  P       34.145      81.906     156.389
  C       35.500      79.761     156.897
  O       34.288      80.471     157.090
  C       35.385      78.344     157.465
  O       35.050      78.436     158.874
  C       34.310      77.480     156.787
  O       34.799      76.131     156.771
  C       33.130      77.606     157.732
  O       32.203      76.539     157.601
  C       33.846      77.667     159.087
  N       33.021      78.264     160.131
  C       32.056      77.456     160.736
  O       31.892      76.289     160.381
  N       31.284      77.990     161.739
  C       31.408      79.243     162.052
  N       30.664      79.712     163.094
  C       32.338      80.159     161.364
  C       33.118      79.602     160.442
  O       33.854      81.860     154.929
  O       32.996      82.589     157.264
  H       31.437      76.725     158.177
  H       32.611      83.396     156.836
  H       32.384      81.203     161.640
  H       33.848      80.188     159.903
  H       34.164      76.665     159.393
  H       32.597      78.543     157.526
  H       34.093      77.797     155.765
  H       36.366      77.862     157.390
  H       30.172      79.019     163.648
  H       36.298      80.288     157.427
  H       30.935      80.552     163.592
  H       35.750      79.741     155.831
  P       34.174      75.109     155.703
  C       32.775      74.085     157.635
  O       32.797      74.546     156.301
  O       35.148      73.841     155.862
  O       34.158      75.563     154.280
  H       35.144      73.328     155.030
  H       31.760      73.748     157.871
  H       33.043      74.889     158.325
  H       33.461      73.243     157.759
  H       36.608      83.741     158.139
  H       35.625      82.460     158.807
  H       34.880      83.953     158.289

 3  4  5  6  7  8  9  10  11  12  13  23  27  28  29  30  32 0
 6-311+G(2d,p)
 ****
 34  35 0
 6-311+G(2d,p)
 ****
 1  2  14  15  16  17  18  19  20  21  22  24  25  26 0
 3-21G
 ****
 31  33  36  37  38  39  40  41  42  43  44  45  46 0
 3-21G
 ****


