%nproc=1
%NoSave
%Mem=1900MB
#P OB98/GEN NMR

erre ene a

0 1
  C      169.246      33.675     122.067
  O      168.265      33.963     123.060
  P      167.994      33.070     124.355
  C      168.958      32.955     126.789
  O      168.873      33.653     125.556
  C      169.944      33.598     127.780
  O      171.277      33.595     127.206
  C      169.580      35.062     128.026
  O      168.588      35.398     128.976
  C      170.915      35.758     128.251
  O      171.256      35.856     129.634
  C      171.910      34.853     127.519
  N      174.990      38.390     125.477
  C      174.681      38.163     126.803
  N      175.220      39.014     127.702
  N      173.901      37.199     127.209
  C      173.359      36.477     126.203
  C      173.573      36.619     124.851
  C      174.486      37.654     124.414
  O      174.803      37.890     123.253
  N      172.834      35.717     124.129
  C      172.156      35.049     125.039
  N      172.447      35.468     126.317
  O      168.036      31.594     124.140
  O      166.482      33.459     124.764
  H      170.653      36.498     130.048
  H      166.084      32.655     125.155
  H      175.617      39.133     125.221
  H      171.453      34.252     124.829
  H      172.771      34.616     128.156
  H      170.884      36.785     127.866
  H      175.730      39.845     127.445
  H      169.201      35.460     127.076
  H      174.826      38.986     128.644
  H      170.012      33.008     128.698
  H      169.265      31.933     126.554
  H      167.970      32.885     127.247
  P      167.066      35.783     128.662
  C      164.921      34.433     128.288
  O      166.159      34.502     128.973
  O      167.012      35.869     127.065
  O      166.595      37.057     129.280
  H      166.210      36.344     126.777
  H      164.274      33.713     128.795
  H      165.089      34.098     127.261
  H      164.426      35.409     128.277
  H      169.219      34.430     121.310
  H      169.039      32.722     121.627
  H      170.216      33.657     122.519

 3  4  5  6  7  8  9  10  11  12  23  26  30  31 0
 6-311+G(2d,p)
 ****
 33  35  36  37  38 0
 6-311+G(2d,p)
 ****
 1  2  13  14  15  16  17  18  19  20  21  22  24  25 0
 3-21G
 ****
 27  28  29  32  34  39  40  41  42  43  44  45  46  47  48  49 0
 3-21G
 ****


