%nproc=1
%NoSave
%Mem=1900MB
#P OB98/GEN NMR

erre ene a

0 1
  C     -896.950     659.340    -631.586
  O     -897.080     660.735    -631.736
  H     -896.460     658.935    -632.481
  H     -897.920     658.855    -631.479
  H     -896.320     659.102    -630.718
  P     -898.000     661.524    -630.669
  C     -897.140     663.874    -631.292
  O     -898.240     662.978    -631.304
  C     -897.580     665.296    -631.642
  O     -898.740     665.671    -630.846
  C     -896.530     666.368    -631.337
  O     -895.410     666.314    -632.199
  C     -897.370     667.625    -631.264
  O     -897.590     668.246    -632.536
  C     -898.710     667.113    -630.697
  N     -898.930     667.518    -629.319
  C     -898.840     668.900    -629.078
  O     -898.570     669.716    -629.943
  N     -899.030     669.276    -627.774
  C     -899.230     668.441    -626.708
  O     -899.340     668.834    -625.557
  C     -899.280     667.001    -627.030
  C     -899.140     666.610    -628.294
  O     -897.480     661.551    -629.258
  O     -899.420     660.816    -630.807
  H     -896.710     668.448    -632.919
  H     -900.000     661.020    -630.028
  H     -898.970     670.264    -627.570
  H     -899.450     666.314    -626.206
  H     -899.180     665.552    -628.562
  H     -899.540     667.484    -631.307
  H     -896.900     668.385    -630.639
  H     -896.150     666.185    -630.318
  H     -897.890     665.328    -632.693
  H     -896.420     663.532    -632.047
  H     -896.660     663.853    -630.310
  P     -893.940     666.737    -631.715
  C     -893.060     665.889    -634.019
  O     -893.020     666.915    -633.034
  O     -893.360     666.007    -630.537
  O     -894.190     668.271    -631.266
  H     -893.590     668.454    -630.513
  H     -892.405     666.144    -634.826
  H     -894.059     665.788    -634.388
  H     -892.745     664.964    -633.583

 6  7  8  9  10  11  12  13  14  15  16  26  31  32  33  34  35 0
 6-311+G(2d,p)
 ****
 36  37 0
 6-311+G(2d,p)
 ****
 1  2  3  4  5  17  18  19  20  21  22  23  24  25 0
 3-21G
 ****
 27  28  29  30  38  39  40  41  42  43  44  45 0
 3-21G
 ****


