%nproc=1
%NoSave
%Mem=1900MB
#P OB98/GEN NMR

erre ene a

0 1
  C      683.795    -326.898     540.129
  O      685.050    -327.463     539.809
  H      683.893    -325.806     540.133
  H      683.483    -327.219     541.128
  H      683.041    -327.179     539.393
  P      685.163    -329.053     539.640
  C      685.842    -329.594     542.061
  O      684.823    -329.693     541.073
  C      685.286    -329.940     543.440
  O      685.052    -331.371     543.501
  C      686.221    -329.566     544.595
  O      685.435    -329.101     545.688
  C      686.875    -330.887     544.958
  O      687.302    -330.921     546.317
  C      685.757    -331.885     544.647
  N      685.906    -336.655     546.295
  C      685.195    -335.568     546.773
  N      684.430    -335.775     547.868
  N      685.234    -334.383     546.222
  C      686.030    -334.322     545.125
  C      686.786    -335.328     544.561
  C      686.740    -336.636     545.184
  O      687.355    -337.633     544.814
  N      687.480    -334.872     543.470
  C      687.159    -333.590     543.380
  N      686.286    -333.213     544.372
  O      686.435    -329.546     539.028
  O      683.892    -329.440     538.753
  H      687.879    -331.716     546.418
  H      684.144    -329.570     537.823
  H      685.846    -337.545     546.761
  H      687.521    -332.904     542.638
  H      685.047    -331.990     545.476
  H      687.749    -331.058     544.316
  H      684.339    -336.664     548.327
  H      686.962    -328.806     544.316
  H      683.884    -334.997     548.223
  H      684.307    -329.451     543.557
  H      686.221    -328.562     542.061
  H      686.667    -330.268     541.805
  P      685.404    -327.531     546.004
  C      687.318    -327.583     547.725
  O      686.872    -327.077     546.468
  O      684.281    -327.064     546.880
  O      685.291    -326.876     544.536
  H      684.799    -326.032     544.607
  H      688.302    -327.216     547.928
  H      687.335    -328.652     547.693
  H      686.651    -327.260     548.497

 6  7  8  9  10  11  12  13  14  15  26  29  33  34 0
 6-311+G(2d,p)
 ****
 36  38  39  40  41 0
 6-311+G(2d,p)
 ****
 1  2  3  4  5  16  17  18  19  20  21  22  23  24  25 0
 3-21G
 ****
 27  28  30  31  32  35  37  42  43  44  45  46  47 0
 3-21G
 ****
 48  49 0
 3-21G
 ****


