%nproc=1
%NoSave
%Mem=1900MB
#P OB98/GEN NMR

erre ene a

0 1
  C       20.369      80.109     -91.180
  O       19.801      79.645     -89.972
  H       21.450      80.209     -91.047
  H       19.957      81.091     -91.433
  H       20.181      79.408     -91.998
  P       18.273      79.156     -89.969
  C       17.300      81.538     -90.156
  O       17.435      80.266     -90.773
  C       15.881      82.085     -90.344
  O       15.766      82.622     -91.700
  C       14.771      81.021     -90.178
  O       13.621      81.688     -89.643
  C       14.542      80.612     -91.623
  O       13.356      79.881     -91.778
  C       14.620      81.984     -92.300
  N       14.749      81.910     -93.752
  C       13.601      81.613     -94.483
  O       12.496      81.431     -93.979
  N       13.771      81.515     -95.840
  C       14.944      81.678     -96.520
  O       15.033      81.603     -97.740
  C       16.128      81.964     -95.690
  C       15.980      82.065     -94.364
  O       17.714      78.782     -88.637
  O       18.275      77.910     -90.979
  H       18.329      77.078     -90.471
  H       13.177      79.714     -92.728
  H       12.949      81.300     -96.386
  H       17.079      82.077     -96.192
  H       16.828      82.274     -93.719
  H       13.744      82.591     -92.048
  H       15.357      79.965     -91.966
  H       15.064      80.200     -89.517
  H       15.730      82.925     -89.655
  H       18.025      82.220     -90.616
  H       17.526      81.448     -89.086
  P       13.371      81.888     -88.066
  C       11.018      80.842     -87.910
  O       12.384      80.738     -87.535
  O       12.923      83.267     -87.701
  O       14.773      81.547     -87.365
  H       14.898      82.133     -86.594
  H       10.471      80.021     -87.496
  H       10.938      80.821     -88.977
  H       10.616      81.762     -87.540

 6  7  8  9  10  11  12  13  14  15  16  27  31  32  33  34  35 0
 6-311+G(2d,p)
 ****
 36  37 0
 6-311+G(2d,p)
 ****
 1  2  3  4  5  17  18  19  20  21  22  23  24  25 0
 3-21G
 ****
 26  28  29  30  38  39  40  41  42  43  44  45 0
 3-21G
 ****


