%nproc=1
%NoSave
%Mem=1900MB
#P OB98/GEN NMR

erre ene a

0 1
  C     -249.452    -323.830    -431.256
  O     -249.004    -325.150    -431.465
  H     -250.449    -323.725    -431.693
  H     -248.779    -323.120    -431.735
  H     -249.515    -323.615    -430.181
  P     -247.534    -325.559    -430.971
  C     -245.178    -325.668    -432.020
  O     -246.553    -325.377    -432.228
  C     -244.333    -325.045    -433.134
  O     -244.700    -325.668    -434.383
  C     -244.555    -323.527    -433.269
  O     -243.341    -322.779    -433.230
  C     -245.432    -323.413    -434.510
  O     -245.326    -322.182    -435.193
  C     -245.019    -324.639    -435.341
  N     -246.050    -325.093    -436.271
  C     -245.711    -325.155    -437.617
  O     -244.611    -324.876    -438.086
  N     -246.715    -325.586    -438.462
  C     -247.980    -325.924    -438.096
  O     -248.829    -326.299    -438.898
  C     -248.282    -325.811    -436.666
  C     -247.327    -325.402    -435.828
  O     -247.421    -326.878    -430.281
  O     -247.100    -324.358    -430.000
  H     -245.794    -322.282    -436.048
  H     -247.152    -324.648    -429.075
  H     -246.472    -325.651    -439.434
  H     -249.290    -326.058    -436.341
  H     -247.517    -325.304    -434.763
  H     -244.119    -324.422    -435.922
  H     -246.491    -323.528    -434.203
  H     -245.117    -323.140    -432.405
  H     -243.269    -325.276    -432.952
  H     -245.057    -326.759    -432.018
  H     -244.864    -325.276    -431.047
  P     -242.773    -322.013    -431.949
  C     -242.388    -319.506    -431.242
  O     -242.914    -320.437    -432.185
  O     -241.455    -322.499    -431.428
  O     -243.877    -322.316    -430.808
  H     -243.393    -322.343    -429.958
  H     -242.583    -318.509    -431.578
  H     -241.332    -319.651    -431.148
  H     -242.855    -319.659    -430.291

 6  7  8  9  10  11  12  13  14  15  16  26  31  32  33  34  35 0
 6-311+G(2d,p)
 ****
 36  37 0
 6-311+G(2d,p)
 ****
 1  2  3  4  5  17  18  19  20  21  22  23  24  25 0
 3-21G
 ****
 27  28  29  30  38  39  40  41  42  43  44  45 0
 3-21G
 ****


