%nproc=1
%NoSave
%Mem=1900MB
#P OB98/GEN NMR

erre ene a

0 1
  C     -321.630      38.037     -87.119
  O     -322.855      37.343     -87.259
  H     -321.569      38.441     -86.106
  H     -321.585      38.867     -87.831
  H     -320.788      37.359     -87.282
  P     -323.130      36.653     -88.682
  C     -325.684      36.545     -88.202
  O     -324.499      35.831     -88.529
  C     -326.850      35.572     -88.063
  O     -327.138      34.972     -89.350
  C     -326.577      34.407     -87.128
  O     -326.696      34.771     -85.762
  C     -327.624      33.404     -87.587
  O     -328.897      33.662     -86.981
  C     -327.689      33.660     -89.095
  N     -327.795      28.851     -90.814
  C     -328.714      29.596     -90.164
  N     -328.613      30.877     -89.749
  C     -327.421      31.395     -90.102
  C     -326.389      30.760     -90.769
  C     -326.609      29.422     -91.136
  N     -325.666      28.650     -91.775
  N     -325.306      31.603     -90.910
  C     -325.680      32.735     -90.349
  N     -326.954      32.658     -89.850
  O     -322.005      35.515     -88.755
  O     -323.067      37.575     -89.855
  H     -328.804      33.424     -86.038
  H     -321.264      35.826     -89.309
  H     -329.650      29.096     -89.936
  H     -325.070      33.629     -90.271
  H     -328.719      33.657     -89.473
  H     -327.331      32.388     -87.323
  H     -325.578      33.988     -87.325
  H     -327.740      36.133     -87.742
  H     -325.906      37.267     -88.996
  H     -325.524      37.089     -87.265
  H     -325.863      27.678     -91.946
  H     -324.735      29.031     -91.916
  P     -325.353      34.921     -84.904
  C     -325.590      33.880     -82.525
  O     -325.780      35.010     -83.364
  O     -324.842      36.400     -85.247
  O     -324.310      33.891     -85.200
  H     -323.867      36.417     -85.274
  H     -325.926      34.110     -81.536
  H     -324.551      33.626     -82.499
  H     -326.150      33.053     -82.909

 6  7  8  9  10  11  12  13  14  15  25  28  32  33  34  35 0
 6-311+G(2d,p)
 ****
 36  37  40 0
 6-311+G(2d,p)
 ****
 1  2  3  4  5  16  17  18  19  20  21  22  23  24 0
 3-21G
 ****
 26  27  29  30  31  38  39 41  42  43  44  45  46  47  48 0
 3-21G
 ****


