%nproc=1
%NoSave
%Mem=1900MB
#P OB98/GEN NMR

erre ene a

0 1
  C       22.693      20.490      11.242
  O       22.270      20.196      12.574
  P       22.346      21.412      13.620
  C       20.040      21.104      14.764
  O       21.450      21.011      14.892
  C       19.336      20.112      15.695
  O       19.391      18.761      15.143
  C       19.949      20.047      17.103
  O       18.866      19.816      18.013
  C       20.842      18.822      17.004
  O       21.245      18.319      18.268
  C       19.946      17.914      16.172
  N       21.456      13.110      16.978
  C       20.786      13.988      17.755
  N       20.424      15.256      17.468
  C       20.821      15.589      16.228
  C       21.514      14.804      15.321
  C       21.837      13.501      15.739
  N       22.538      12.606      14.965
  N       21.764      15.510      14.154
  C       21.291      16.719      14.396
  N       20.643      16.788      15.595
  O       21.505      22.570      12.907
  O       23.740      21.836      13.944
  H       21.955      17.656      18.150
  H       22.103      23.207      12.473
  H       20.507      13.625      18.740
  H       21.390      17.572      13.739
  H       19.110      17.510      16.757
  H       21.752      19.082      16.449
  H       20.474      20.960      17.396
  H       18.278      20.393      15.762
  H       19.743      20.900      13.733
  H       22.726      11.696      15.354
  H       22.849      12.864      14.040
  H       19.730      22.134      14.975
  P       18.058      21.076      18.590
  C       15.999      19.586      18.930
  O       16.944      20.434      19.551
  O       17.176      21.469      17.311
  O       18.879      22.195      19.135
  H       16.720      20.691      16.945
  H       15.355      19.156      19.701
  H       16.507      18.776      18.400
  H       15.382      20.161      18.234
  H       22.600      19.613      10.636
  H       23.714      20.808      11.254
  H       22.081      21.269      10.837

 3  4  5  6  7  8  9  10  11  12  22  25  29  30  31  32 0
 6-311+G(2d,p)
 ****
 33  36  37 0
 6-311+G(2d,p)
 ****
 1  2  13  14  15  16  17  18  19  20  21  23  24  26 0
 3-21G
 ****
 27  28  34  35  38  39  40  41  42  43  44  45  46  47  48 0
 3-21G
 ****


