%nproc=1
%NoSave
%Mem=1900MB
#P OB98/GEN NMR

erre ene a

0 1
  C      -88.586     -99.658    -123.115
  O      -87.737     -98.925    -123.974
  H      -88.862     -99.020    -122.272
  H      -88.067    -100.539    -122.728
  H      -89.497     -99.958    -123.638
  P      -87.183     -99.643    -125.297
  C      -84.831     -99.126    -124.341
  O      -85.694    -100.105    -124.898
  C      -84.165     -99.667    -123.079
  O      -85.143    -100.190    -122.153
  C      -83.200    -100.825    -123.308
  O      -81.971    -100.439    -123.896
  C      -83.031    -101.312    -121.880
  O      -82.165    -100.415    -121.164
  C      -84.486    -101.221    -121.363
  N      -85.204    -102.490    -121.476
  C      -84.816    -103.509    -120.598
  O      -83.909    -103.329    -119.788
  N      -85.445    -104.728    -120.681
  C      -86.363    -104.920    -121.578
  N      -86.947    -106.149    -121.619
  C      -86.788    -103.882    -122.535
  C      -86.177    -102.704    -122.428
  O      -87.294     -98.859    -126.564
  O      -87.952    -101.046    -125.345
  H      -82.526     -99.518    -121.283
  H      -87.652    -101.527    -126.154
  H      -87.536    -104.102    -123.281
  H      -86.429    -101.892    -123.102
  H      -84.509    -100.893    -120.318
  H      -82.592    -102.308    -121.813
  H      -83.678    -101.622    -123.892
  H      -83.670     -98.824    -122.581
  H      -86.636    -106.841    -120.950
  H      -85.423     -98.233    -124.121
  H      -87.615    -106.411    -122.332
  H      -84.048     -98.865    -125.059
  P      -81.592    -101.115    -125.306
  C      -79.114    -101.363    -124.523
  O      -80.275    -101.987    -125.044
  O      -81.077     -99.877    -126.173
  O      -82.705    -101.863    -125.971
  H      -81.783     -99.551    -126.765
  H      -78.337    -102.090    -124.413
  H      -79.338    -100.933    -123.569
  H      -78.791    -100.595    -125.194

 6  7  8  9  10  11  12  13  14  15  16  26  30  31  32  33  35 0
 6-311+G(2d,p)
 ****
 37  38 0
 6-311+G(2d,p)
 ****
 1  2  3  4  5  17  18  19  20  21  22  23  24  25 0
 3-21G
 ****
 27  28  29  34  36  39  40  41  42  43  44  45  46 0
 3-21G
 ****


