%nproc=1
%NoSave
%Mem=1900MB
#P OB98/GEN NMR

erre ene a

0 1
  C      374.075     374.535    -484.279
  O      373.099     375.274    -483.543
  P      372.781     374.822    -482.039
  C      374.131     376.585    -480.681
  O      372.850     376.121    -481.103
  C      374.130     378.109    -480.550
  O      374.194     378.761    -481.843
  C      372.880     378.666    -479.872
  O      372.983     378.599    -478.451
  C      372.918     380.116    -480.322
  O      373.855     380.859    -479.518
  C      373.429     379.991    -481.761
  N      370.167     382.827    -484.400
  C      371.134     383.201    -483.482
  N      371.265     384.525    -483.252
  N      371.918     382.360    -482.863
  C      371.688     381.063    -483.217
  C      370.757     380.571    -484.111
  C      369.891     381.521    -484.770
  O      369.003     381.244    -485.579
  N      370.828     379.204    -484.194
  C      371.806     378.869    -483.369
  N      372.357     379.959    -482.746
  O      374.096     374.014    -481.630
  O      371.549     373.988    -481.896
  H      374.745     380.558    -479.781
  H      373.880     373.339    -480.954
  H      369.588     383.520    -484.843
  H      372.166     377.853    -483.210
  H      374.102     380.816    -482.044
  H      371.955     380.612    -480.212
  H      370.733     385.238    -483.728
  H      371.969     378.179    -480.238
  H      371.992     384.823    -482.608
  H      375.018     378.410    -479.970
  H      374.899     376.278    -481.391
  H      374.391     376.101    -479.733
  P      371.620     378.553    -477.598
  C      372.286     376.483    -476.185
  O      372.000     377.861    -476.199
  O      370.767     377.434    -478.371
  O      370.887     379.850    -477.518
  H      369.812     377.634    -478.291
  H      372.688     376.217    -475.193
  H      373.049     376.229    -476.937
  H      371.379     375.901    -476.366
  H      374.176     374.954    -485.258
  H      373.764     373.514    -484.358
  H      375.016     374.583    -483.772

 3  4  5  6  7  8  9  10  11  12  23  26  30  31 0
 6-311+G(2d,p)
 ****
 33  35  36  37  38 0
 6-311+G(2d,p)
 ****
 1  2  13  14  15  16  17  18  19  20  21  22  24  25 0
 3-21G
 ****
 27  28  29  32  34  39  40  41  42  43  44  45  46  47  48  49 0
 3-21G
 ****


