%nproc=1
%NoSave
%Mem=1900MB
#P OB98/GEN NMR

erre ene a

0 1
  C       -2.758    -250.034    -338.998
  O       -2.717    -249.822    -340.395
  H       -3.152    -249.136    -338.517
  H       -1.752    -250.225    -338.618
  H       -3.410    -250.878    -338.760
  P       -2.276    -251.064    -341.308
  C        0.302    -250.731    -341.470
  O       -0.960    -250.593    -342.102
  C        0.985    -249.366    -341.377
  O        1.149    -248.836    -342.721
  C        0.181    -248.338    -340.574
  O        1.086    -247.510    -339.837
  C       -0.510    -247.519    -341.649
  O       -0.884    -246.215    -341.224
  C        0.560    -247.519    -342.746
  N        0.011    -247.223    -344.066
  C       -0.289    -245.896    -344.355
  O       -0.056    -244.947    -343.607
  N       -0.891    -245.674    -345.568
  C       -1.230    -246.625    -346.484
  O       -1.786    -246.365    -347.545
  C       -0.897    -248.008    -346.121
  C       -0.303    -248.242    -344.948
  O       -3.397    -251.100    -342.449
  O       -2.135    -252.369    -340.600
  H       -4.139    -251.674    -342.180
  H       -0.071    -245.747    -340.939
  H       -1.111    -244.716    -345.793
  H       -1.158    -248.793    -346.820
  H       -0.055    -249.252    -344.644
  H        1.354    -246.801    -342.507
  H       -1.413    -248.034    -341.991
  H       -0.535    -248.799    -339.892
  H        1.990    -249.498    -340.957
  H        0.928    -251.407    -342.062
  H        0.163    -251.155    -340.470
  P        1.689    -248.106    -338.474
  C        1.419    -245.796    -337.282
  O        2.282    -246.850    -337.669
  O        2.979    -248.879    -339.012
  O        0.710    -248.948    -337.722
  H        3.426    -248.426    -339.747
  H        1.980    -245.050    -336.759
  H        0.652    -246.180    -336.642
  H        0.973    -245.363    -338.153

 6  7  8  9  10  11  12  13  14  15  16  27  31  32  33  34  35 0
 6-311+G(2d,p)
 ****
 36  37 0
 6-311+G(2d,p)
 ****
 1  2  3  4  5  17  18  19  20  21  22  23  24  25 0
 3-21G
 ****
 26  28  29  30  38  39  40  41  42  43  44  45 0
 3-21G
 ****


