%nproc=1
%NoSave
%Mem=1900MB
#P OB98/GEN NMR

erre ene a

0 1
  C      436.078    -434.405    -449.121
  O      437.048    -434.029    -448.150
  P      438.415    -434.870    -448.130
  C      439.906    -433.226    -449.513
  O      439.213    -434.464    -449.461
  C      441.378    -433.475    -449.842
  O      442.049    -434.067    -448.700
  C      441.609    -434.423    -451.010
  O      441.492    -433.736    -452.240
  C      443.032    -434.924    -450.721
  O      444.006    -433.965    -451.168
  C      443.023    -435.034    -449.187
  N      444.779    -439.712    -448.425
  C      445.341    -438.653    -449.115
  N      446.576    -438.855    -449.636
  N      444.755    -437.496    -449.274
  C      443.522    -437.439    -448.712
  C      442.849    -438.421    -448.018
  C      443.536    -439.678    -447.809
  O      443.123    -440.614    -447.126
  N      441.610    -438.009    -447.623
  C      441.547    -436.759    -448.041
  N      442.688    -436.359    -448.689
  O      437.926    -436.369    -448.413
  O      439.216    -434.747    -446.877
  H      444.894    -434.266    -450.905
  H      437.864    -436.869    -447.573
  H      445.280    -440.578    -448.321
  H      440.710    -436.098    -447.889
  H      443.990    -434.770    -448.753
  H      443.246    -435.864    -451.242
  H      447.072    -439.727    -449.570
  H      440.906    -435.271    -450.966
  H      446.995    -438.091    -450.143
  H      441.849    -432.502    -450.036
  H      439.829    -432.726    -448.552
  H      439.449    -432.591    -450.280
  P      441.146    -434.602    -453.548
  C      438.600    -434.432    -453.039
  O      439.714    -435.276    -453.306
  O      442.164    -435.840    -453.451
  O      441.299    -433.867    -454.837
  H      442.462    -436.089    -454.350
  H      437.693    -434.922    -453.413
  H      438.705    -433.455    -453.531
  H      438.509    -434.286    -451.964
  H      435.220    -433.773    -449.031
  H      435.789    -435.423    -448.961
  H      436.496    -434.302    -450.101

 3  4  5  6  7  8  9  10  11  12  23  26  30  31 0
 6-311+G(2d,p)
 ****
 33  35  36  37  38 0
 6-311+G(2d,p)
 ****
 1  2  13  14  15  16  17  18  19  20  21  22  24  25 0
 3-21G
 ****
 27  28  29  32  34  39  40  41  42  43  44  45  46  47  48  49 0
 3-21G
 ****


