%nproc=1
%NoSave
%Mem=1900MB
#P OB98/GEN NMR

erre ene a

0 1
  C       30.965     268.122     327.506
  O       31.990     268.954     328.008
  H       30.716     268.445     326.492
  H       30.071     268.203     328.131
  H       31.303     267.082     327.475
  P       32.465     268.687     329.517
  C       31.473     270.797     330.664
  O       32.640     270.126     330.204
  C       31.861     272.140     331.279
  O       32.686     271.925     332.444
  C       32.689     273.028     330.356
  O       31.892     273.683     329.388
  C       33.302     273.988     331.362
  O       32.410     275.065     331.676
  C       33.536     273.081     332.591
  N       34.943     272.713     332.748
  C       35.654     273.450     333.687
  O       35.156     274.357     334.354
  N       36.981     273.136     333.810
  C       37.656     272.205     333.076
  O       38.862     272.020     333.183
  C       36.846     271.447     332.105
  C       35.551     271.738     331.979
  O       33.970     268.167     329.336
  O       31.624     267.724     330.285
  H       34.002     267.199     329.444
  H       31.642     274.662     332.125
  H       37.516     273.667     334.483
  H       37.350     270.697     331.510
  H       34.933     271.209     331.259
  H       33.218     273.592     333.506
  H       34.219     274.438     330.976
  H       33.488     272.444     329.887
  H       30.943     272.656     331.593
  H       30.975     270.186     331.422
  H       30.790     270.939     329.821
  P       31.817     273.066     327.912
  C       32.964     275.153     326.802
  O       31.831     274.306     326.893
  O       30.305     272.548     327.871
  O       32.847     272.021     327.643
  H       29.689     273.125     328.355
  H       32.782     275.915     326.073
  H       33.817     274.577     326.510
  H       33.148     275.606     327.754

 6  7  8  9  10  11  12  13  14  15  16  27  31  32  33  34  35 0
 6-311+G(2d,p)
 ****
 36  37 0
 6-311+G(2d,p)
 ****
 1  2  3  4  5  17  18  19  20  21  22  23  24  25 0
 3-21G
 ****
 26  28  29  30  38  39  40  41  42  43  44  45 0
 3-21G
 ****


