%nproc=1
%NoSave
%Mem=1900MB
#P OB98/GEN NMR

erre ene a

0 1
  C     -319.262     884.427     705.156
  O     -320.374     884.728     705.978
  H     -318.402     885.007     705.508
  H     -319.462     884.690     704.110
  H     -319.018     883.364     705.232
  P     -321.824     884.212     705.506
  C     -322.939     884.114     707.836
  O     -322.859     884.802     706.584
  C     -323.988     884.732     708.754
  O     -323.550     886.023     709.241
  C     -325.326     885.003     708.058
  O     -326.038     883.853     707.657
  C     -325.973     885.985     709.041
  O     -326.605     885.324     710.132
  C     -324.742     886.780     709.538
  N     -324.673     888.121     708.966
  C     -325.488     889.085     709.557
  O     -326.251     888.841     710.481
  N     -325.430     890.339     709.001
  C     -324.680     890.703     707.902
  O     -324.694     891.840     707.459
  C     -323.880     889.634     707.308
  C     -323.897     888.408     707.845
  O     -321.946     882.733     705.283
  O     -322.129     885.085     704.194
  H     -326.967     886.023     710.715
  H     -322.873     884.697     703.671
  H     -325.997     891.048     709.425
  H     -323.272     889.891     706.435
  H     -323.314     887.609     707.424
  H     -324.781     886.897     710.636
  H     -326.719     886.600     708.547
  H     -325.119     885.576     707.141
  H     -324.127     884.065     709.619
  H     -321.950     884.189     708.312
  H     -323.152     883.051     707.658
  P     -326.464     883.562     706.151
  C     -326.051     881.001     706.487
  O     -326.921     882.027     706.036
  O     -325.557     884.099     705.086
  O     -327.872     884.354     706.049
  H     -327.940     884.701     705.127
  H     -326.514     880.048     706.335
  H     -325.849     881.137     707.529
  H     -325.134     881.044     705.937

 6  7  8  9  10  11  12  13  14  15  16  26  31  32  33  34  35 0
 6-311+G(2d,p)
 ****
 36  37 0
 6-311+G(2d,p)
 ****
 1  2  3  4  5  17  18  19  20  21  22  23  24  25 0
 3-21G
 ****
 27  28  29  30  38  39  40  41  42  43  44  45 0
 3-21G
 ****


