%nproc=1
%NoSave
%Mem=1900MB
#P OB98/GEN NMR

erre ene a

0 1
  C      694.741      42.006    -749.925
  O      695.199      40.992    -750.807
  P      696.598      40.284    -750.461
  C      698.972      41.338    -750.272
  O      697.733      41.290    -750.985
  C      699.527      42.759    -750.260
  O      698.658      43.617    -749.499
  C      700.896      42.891    -749.607
  O      701.945      42.550    -750.499
  C      700.924      44.377    -749.305
  O      701.243      45.117    -750.492
  C      699.478      44.641    -748.882
  N      699.340      47.467    -744.625
  C      699.640      47.786    -745.904
  N      699.663      46.971    -746.966
  C      699.378      45.704    -746.626
  C      699.101      45.235    -745.348
  C      699.078      46.171    -744.313
  N      698.751      45.865    -743.014
  N      698.865      43.873    -745.382
  C      698.985      43.541    -746.651
  N      699.287      44.608    -747.437
  O      696.662      39.080    -751.515
  O      696.735      39.814    -749.051
  H      702.137      44.832    -750.765
  H      697.254      38.378    -751.186
  H      699.867      48.826    -746.085
  H      698.868      42.528    -747.040
  H      699.115      45.614    -749.234
  H      701.678      44.636    -748.549
  H      700.952      42.319    -748.675
  H      699.551      43.124    -751.284
  H      699.683      40.679    -750.785
  H      698.581      46.612    -742.371
  H      698.351      44.940    -742.842
  H      698.813      40.963    -749.258
  P      703.255      41.880    -749.857
  C      704.485      42.638    -747.695
  O      703.901      43.015    -748.931
  O      704.263      41.775    -751.099
  O      703.003      40.554    -749.206
  H      704.902      41.055    -750.954
  H      705.133      43.451    -747.352
  H      705.077      41.730    -747.793
  H      703.692      42.481    -746.951
  H      693.804      42.387    -750.275
  H      695.458      42.799    -749.890
  H      694.615      41.596    -748.945

 3  4  5  6  7  8  9  10  11  12  22  25  29  30  31  32 0
 6-311+G(2d,p)
 ****
 33  36  37 0
 6-311+G(2d,p)
 ****
 1  2  13  14  15  16  17  18  19  20  21  23  24  26 0
 3-21G
 ****
 27  28  34  35  38  39  40  41  42  43  44  45  46  47  48 0
 3-21G
 ****


