%nproc=1
%NoSave
%Mem=1900MB
#P OB98/GEN NMR

erre ene a

0 1
  C      243.114     384.032     196.720
  O      244.167     384.156     195.789
  H      243.151     383.026     197.152
  H      242.148     384.154     196.224
  H      243.220     384.764     197.524
  P      244.328     385.525     194.965
  C      245.000     383.946     193.054
  O      245.296     385.162     193.727
  C      246.278     383.255     192.578
  O      247.039     382.796     193.730
  C      246.024     382.037     191.678
  O      246.874     382.097     190.528
  C      246.430     380.855     192.547
  O      246.803     379.707     191.791
  C      247.544     381.491     193.391
  N      247.859     380.692     194.569
  C      249.186     380.269     194.691
  O      250.015     380.579     193.835
  N      249.532     379.464     195.746
  C      248.616     379.071     196.579
  N      249.019     378.252     197.587
  C      247.197     379.472     196.473
  C      246.890     380.276     195.455
  O      244.759     386.697     195.782
  O      242.914     385.743     194.250
  H      246.752     378.919     192.379
  H      242.811     386.699     194.028
  H      246.475     379.114     197.193
  H      245.874     380.623     195.294
  H      248.459     381.619     192.800
  H      245.588     380.575     193.191
  H      244.990     381.952     191.349
  H      246.907     383.998     192.071
  H      250.000     377.997     197.617
  H      244.346     384.167     192.204
  H      248.398     377.863     198.277
  H      244.473     383.285     193.750
  P      246.142     382.042     189.101
  C      246.752     379.761     188.019
  O      247.043     381.149     188.117
  O      246.313     383.529     188.538
  O      244.705     381.648     189.184
  H      245.449     383.985     188.535
  H      247.431     379.302     187.331
  H      245.749     379.631     187.671
  H      246.858     379.306     188.981

 6  7  8  9  10  11  12  13  14  15  16  26  30  31  32  33  35 0
 6-311+G(2d,p)
 ****
 37  38 0
 6-311+G(2d,p)
 ****
 1  2  3  4  5  17  18  19  20  21  22  23  24  25 0
 3-21G
 ****
 27  28  29  34  36  39  40  41  42  43  44  45  46 0
 3-21G
 ****


