%nproc=1
%NoSave
%Mem=1900MB
#P OB98/GEN NMR

erre ene a

0 1
  C       27.925      97.610     -15.046
  O       27.453      96.309     -15.324
  H       27.082      98.225     -14.719
  H       28.359      98.060     -15.942
  H       28.668      97.584     -14.244
  P       28.483      95.220     -15.888
  C       28.643      93.819     -13.727
  O       28.208      93.860     -15.081
  C       28.003      92.630     -13.003
  O       26.671      93.027     -12.595
  C       27.883      91.390     -13.901
  O       28.450      90.219     -13.318
  C       26.402      91.356     -14.255
  O       25.899      90.075     -14.569
  C       25.741      92.023     -13.044
  N       24.439      92.620     -13.334
  C       23.371      91.752     -13.537
  O       23.431      90.527     -13.469
  N       22.170      92.350     -13.824
  C       21.943      93.689     -13.933
  O       20.844      94.165     -14.187
  C       23.116      94.553     -13.729
  C       24.292      93.988     -13.445
  O       29.913      95.643     -15.929
  O       27.929      94.886     -17.353
  H       26.187      89.857     -15.479
  H       28.473      95.345     -18.020
  H       21.387      91.731     -13.963
  H       22.975      95.621     -13.818
  H       25.177      94.596     -13.286
  H       25.603      91.303     -12.237
  H       26.246      91.987     -15.140
  H       28.464      91.518     -14.822
  H       28.578      92.418     -12.094
  H       28.347      94.758     -13.249
  H       29.734      93.730     -13.693
  P       28.752      88.866     -14.108
  C       31.362      88.897     -13.863
  O       30.128      88.264     -13.558
  O       28.587      88.933     -15.589
  O       27.637      87.848     -13.538
  H       27.411      87.242     -14.274
  H       32.164      88.352     -13.410
  H       31.353      89.898     -13.485
  H       31.499      88.918     -14.924

 6  7  8  9  10  11  12  13  14  15  16  26  31  32  33  34  35 0
 6-311+G(2d,p)
 ****
 36  37 0
 6-311+G(2d,p)
 ****
 1  2  3  4  5  17  18  19  20  21  22  23  24  25 0
 3-21G
 ****
 27  28  29  30  38  39  40  41  42  43  44  45 0
 3-21G
 ****


