%nproc=1
%NoSave
%Mem=1900MB
#P OB98/GEN NMR

erre ene a

0 1
  C      616.541     339.219    -461.597
  O      617.512     339.583    -462.576
  P      618.935     338.847    -462.510
  C      620.626     340.174    -464.015
  O      619.685     339.116    -463.898
  C      620.376     340.991    -465.297
  O      620.261     340.063    -466.415
  C      619.084     341.799    -465.318
  O      619.187     342.800    -466.335
  C      618.071     340.757    -465.738
  O      616.876     341.358    -466.222
  C      618.860     339.923    -466.770
  N      618.485     338.490    -466.778
  C      617.561     338.051    -467.718
  O      617.022     338.786    -468.543
  N      617.220     336.722    -467.659
  C      617.738     335.800    -466.799
  O      617.335     334.642    -466.724
  C      618.814     336.283    -465.921
  C      619.127     337.579    -465.947
  O      618.551     337.286    -462.572
  O      619.733     339.181    -461.297
  H      616.520     341.922    -465.491
  H      618.665     336.886    -461.684
  H      616.496     336.408    -468.290
  H      619.299     335.563    -465.278
  H      619.909     337.956    -465.287
  H      618.713     340.301    -467.787
  H      617.800     340.138    -464.883
  H      618.827     342.264    -464.366
  H      621.243     341.628    -465.493
  H      621.639     339.778    -464.004
  H      620.533     340.836    -463.148
  P      619.741     344.247    -465.920
  C      618.065     345.541    -467.378
  O      619.428     345.227    -467.150
  O      621.142     344.289    -465.395
  O      618.678     344.730    -464.808
  H      619.067     345.445    -464.275
  H      617.998     346.531    -467.830
  H      617.485     345.527    -466.453
  H      617.648     344.807    -468.079
  H      615.645     339.782    -461.757
  H      616.924     339.428    -460.620
  H      616.325     338.174    -461.680

 3  4  5  6  7  8  9  10  11  12  13  23  28  29  30  31  32 0
 6-311+G(2d,p)
 ****
 33  34 0
 6-311+G(2d,p)
 ****
 1  2  14  15  16  17  18  19  20  21  22  24  25  26  27 0
 3-21G
 ****
 35  36  37  38  39  40  41  42  43  44  45 0
 3-21G
 ****


