%nproc=1
%NoSave
%Mem=1900MB
#P OB98/GEN NMR

erre ene a

0 1
  C      209.153    -200.988    -257.906
  O      209.640    -202.032    -257.086
  H      208.283    -201.330    -258.473
  H      208.853    -200.154    -257.269
  H      209.936    -200.648    -258.591
  P      210.164    -203.349    -257.838
  C      212.537    -202.331    -258.075
  O      211.411    -202.886    -258.734
  C      213.825    -202.864    -258.693
  O      213.917    -204.290    -258.498
  C      213.946    -202.650    -260.200
  O      214.359    -201.329    -260.512
  C      215.021    -203.667    -260.545
  O      216.319    -203.139    -260.204
  C      214.667    -204.837    -259.614
  N      214.686    -208.591    -263.090
  C      215.667    -207.792    -262.620
  N      215.591    -206.828    -261.677
  C      214.342    -206.740    -261.195
  C      213.241    -207.497    -261.559
  C      213.443    -208.460    -262.561
  N      212.412    -209.225    -263.084
  N      212.121    -207.104    -260.853
  C      212.536    -206.113    -260.092
  N      213.870    -205.861    -260.258
  O      209.004    -203.631    -258.910
  O      210.403    -204.530    -256.958
  H      216.528    -202.461    -260.873
  H      208.395    -204.303    -258.552
  H      216.647    -207.943    -263.062
  H      211.910    -205.551    -259.413
  H      215.558    -205.318    -259.199
  H      215.046    -203.923    -261.609
  H      213.020    -202.918    -260.720
  H      214.670    -202.401    -258.168
  H      212.509    -202.599    -257.013
  H      212.563    -209.503    -264.049
  H      211.486    -208.898    -262.842
  H      212.496    -201.241    -258.168
  P      213.909    -200.720    -261.927
  C      212.316    -198.866    -261.080
  O      212.429    -200.131    -261.719
  O      213.675    -202.029    -262.818
  O      214.889    -199.799    -262.565
  H      214.225    -201.981    -263.623
  H      211.284    -198.595    -261.006
  H      212.838    -198.129    -261.653
  H      212.741    -198.922    -260.100

 6  7  8  9  10  11  12  13  14  15  25  28  32  33  34  35 0
 6-311+G(2d,p)
 ****
 36  39  40 0
 6-311+G(2d,p)
 ****
 1  2  3  4  5  16  17  18  19  20  21  22  23  24 0
 3-21G
 ****
 26  27  29  30  31  37  38  41  42  43  44  45  46  47  48 0
 3-21G
 ****


