%nproc=1
%NoSave
%Mem=1900MB
#P OB98/GEN NMR

erre ene a

0 1
  C      -17.638      75.190    -104.217
  O      -17.294      76.504    -103.774
  P      -18.510      77.418    -103.261
  C      -16.983      78.840    -101.727
  O      -17.906      78.834    -102.805
  C      -15.549      78.610    -102.217
  O      -15.235      79.483    -103.343
  C      -14.482      78.865    -101.145
  O      -13.422      77.928    -101.380
  C      -13.993      80.260    -101.483
  O      -12.723      80.528    -100.895
  C      -14.015      80.182    -103.008
  N      -11.176      84.286    -103.772
  C      -10.951      83.187    -102.966
  N       -9.775      83.152    -102.305
  N      -11.806      82.206    -102.825
  C      -12.923      82.357    -103.578
  C      -13.253      83.391    -104.422
  C      -12.313      84.484    -104.546
  O      -12.461      85.477    -105.248
  N      -14.464      83.170    -105.037
  C      -14.886      82.036    -104.503
  N      -13.966      81.478    -103.658
  O      -18.935      76.719    -101.885
  O      -19.652      77.491    -104.222
  H      -12.110      79.817    -101.181
  H      -19.726      76.165    -102.019
  H      -10.492      85.021    -103.832
  H      -15.832      81.565    -104.714
  H      -13.168      79.607    -103.407
  H      -14.706      81.009    -101.119
  H       -9.054      83.848    -102.409
  H      -14.843      78.778    -100.117
  H       -9.569      82.337    -101.740
  H      -15.472      77.577    -102.575
  H      -17.243      78.058    -101.009
  H      -17.070      79.789    -101.187
  P      -12.830      77.137    -100.121
  C      -13.168      74.660    -100.785
  O      -12.265      75.739    -100.655
  O      -14.145      76.722     -99.303
  O      -11.900      77.935     -99.265
  H      -13.974      76.804     -98.347
  H      -12.795      73.979    -101.552
  H      -14.169      74.998    -101.070
  H      -13.228      74.122     -99.835
  H      -16.754      74.677    -104.533
  H      -18.323      75.258    -105.036
  H      -18.095      74.651    -103.414

 3  4  5  6  7  8  9  10  11  12  23  26  30  31 0
 6-311+G(2d,p)
 ****
 33  35  36  37  38 0
 6-311+G(2d,p)
 ****
 1  2  13  14  15  16  17  18  19  20  21  22  24  25 0
 3-21G
 ****
 27  28  29  32  34  39  40  41  42  43  44  45  46  47  48  49 0
 3-21G
 ****


