%nproc=1
%NoSave
%Mem=1900MB
#P OB98/GEN NMR

erre ene a

0 1
  C       94.579     437.007    -120.563
  O       93.286     437.482    -120.243
  H       94.880     436.233    -119.851
  H       94.554     436.572    -121.565
  H       95.300     437.828    -120.551
  P       93.116     438.189    -118.813
  C       93.727     440.520    -119.772
  O       94.048     439.496    -118.846
  C       93.607     441.862    -119.054
  O       94.883     442.244    -118.498
  C       93.182     443.027    -119.941
  O       91.780     443.035    -120.161
  C       93.620     444.208    -119.088
  O       92.654     444.440    -118.045
  C       94.937     443.694    -118.484
  N       98.515     447.331    -118.880
  C       97.511     447.143    -117.993
  N       96.613     446.140    -117.941
  C       96.833     445.255    -118.926
  C       97.826     445.296    -119.890
  C       98.695     446.401    -119.851
  N       99.677     446.615    -120.806
  N       97.726     444.213    -120.745
  C       96.677     443.545    -120.313
  N       96.111     444.129    -119.213
  O       93.893     437.188    -117.828
  O       91.705     438.410    -118.377
  H       92.947     445.235    -117.562
  H       93.248     436.593    -117.403
  H       97.418     447.907    -117.230
  H       96.295     442.641    -120.763
  H       95.058     444.003    -117.438
  H       93.713     445.138    -119.657
  H       93.741     443.039    -120.884
  H       92.908     441.735    -118.218
  H       92.775     440.288    -120.261
  H       99.893     447.599    -120.952
  H       99.585     446.038    -121.636
  H       94.513     440.565    -120.532
  P       91.251     443.558    -121.584
  C       91.517     441.345    -122.896
  O       91.992     442.666    -122.699
  O       91.946     444.994    -121.717
  O       89.770     443.656    -121.714
  H       91.264     445.677    -121.863
  H       92.095     440.868    -123.660
  H       90.490     441.376    -123.193
  H       91.608     440.793    -121.984

 6  7  8  9  10  11  12  13  14  15  25  28  32  33  34  35 0
 6-311+G(2d,p)
 ****
 36  39  40 0
 6-311+G(2d,p)
 ****
 1  2  3  4  5  16  17  18  19  20  21  22  23  24 0
 3-21G
 ****
 26  27  29  30  31  37  38  41  42  43  44  45  46  47  48 0
 3-21G
 ****


