%nproc=1
%NoSave
%Mem=1900MB
#P OB98/GEN NMR

erre ene a

0 1
  C      966.306    -894.640      -4.932
  O      967.603    -894.840      -5.527
  P      968.155    -893.700      -6.500
  C      966.595    -894.490      -8.457
  O      967.003    -893.450      -7.593
  C      965.355    -894.080      -9.264
  O      965.708    -893.050     -10.210
  C      964.740    -895.220     -10.065
  O      964.023    -896.120      -9.254
  C      963.891    -894.430     -11.047
  O      962.669    -894.020     -10.443
  C      964.762    -893.170     -11.308
  N      965.460    -893.200     -12.597
  C      964.858    -892.450     -13.609
  O      963.836    -891.790     -13.472
  N      965.512    -892.490     -14.804
  C      966.659    -893.200     -15.126
  O      967.183    -893.170     -16.218
  C      967.184    -893.990     -14.010
  C      966.587    -893.980     -12.830
  O      969.278    -894.490      -7.289
  O      968.619    -892.480      -5.754
  H      969.048    -895.420      -7.470
  H      962.131    -893.570     -11.145
  H      965.105    -891.940     -15.569
  H      968.053    -894.610     -14.229
  H      966.949    -894.570     -12.001
  H      964.151    -892.240     -11.249
  H      963.635    -894.970     -11.931
  H      965.507    -895.740     -10.594
  H      964.613    -893.690      -8.525
  H      966.345    -895.390      -7.842
  H      967.422    -894.760      -9.109
  P      964.592    -897.610      -9.161
  C      962.703    -899.020     -10.302
  O      963.991    -898.430     -10.422
  O      963.762    -898.180      -7.899
  O      966.074    -897.710      -9.018
  H      962.822    -897.940      -7.939
  H      962.320    -899.180     -11.329
  H      962.007    -898.400      -9.772
  H      962.814    -900.000      -9.799
  H      966.067    -895.476      -4.309
  H      965.570    -894.548      -5.703
  H      966.318    -893.748      -4.342

 3  4  5  6  7  8  9  10  11  12  13  24  28  29  30  31  32 0
 6-311+G(2d,p)
 ****
 33  34 0
 6-311+G(2d,p)
 ****
 1  2  14  15  16  17  18  19  20  21  22  23  25  26  27 0
 3-21G
 ****
 35  36  37  38  39  40  41  42  43  44  45 0
 3-21G
 ****


