%nproc=1
%NoSave
%Mem=1900MB
#P OB98/GEN NMR

erre ene a

0 1
  C      -74.808     352.670      82.546
  O      -73.844     353.561      83.065
  H      -75.384     352.255      83.376
  H      -74.309     351.849      82.023
  H      -75.494     353.180      81.866
  P      -73.058     354.526      82.057
  C      -74.547     356.622      82.252
  O      -73.302     356.024      82.579
  C      -75.149     357.332      83.468
  O      -75.723     356.332      84.359
  C      -74.130     358.140      84.285
  O      -74.828     359.250      84.864
  C      -73.736     357.147      85.359
  O      -73.115     357.784      86.453
  C      -75.086     356.482      85.642
  N      -74.947     355.206      86.341
  C      -76.116     354.496      86.576
  O      -77.232     354.908      86.255
  N      -75.977     353.307      87.236
  C      -74.809     352.804      87.730
  O      -74.745     351.746      88.345
  C      -73.608     353.620      87.490
  C      -73.728     354.764      86.815
  O      -73.343     354.318      80.607
  O      -71.514     354.285      82.402
  H      -73.731     358.425      86.866
  H      -70.967     354.419      81.605
  H      -76.815     352.775      87.406
  H      -72.667     353.252      87.877
  H      -72.862     355.387      86.621
  H      -75.719     357.137      86.257
  H      -73.026     356.413      84.964
  H      -73.282     358.490      83.691
  H      -75.976     357.966      83.130
  H      -75.223     355.830      81.913
  H      -74.405     357.339      81.437
  P      -74.174     360.712      84.966
  C      -75.904     362.513      84.336
  O      -75.314     361.758      85.390
  O      -73.389     361.117      83.761
  O      -73.232     360.645      86.259
  H      -72.494     361.275      86.160
  H      -76.645     363.171      84.740
  H      -76.362     361.848      83.634
  H      -75.148     363.087      83.842

 6  7  8  9  10  11  12  13  14  15  16  26  31  32  33  34  35 0
 6-311+G(2d,p)
 ****
 36  37 0
 6-311+G(2d,p)
 ****
 1  2  3  4  5  17  18  19  20  21  22  23  24  25 0
 3-21G
 ****
 27  28  29  30  38  39  40  41  42  43  44  45 0
 3-21G
 ****


