%nproc=1
%NoSave
%Mem=1900MB
#P OB98/GEN NMR

erre ene a

0 1
  C      294.868     625.414     247.258
  O      293.517     625.073     247.490
  H      294.953     626.505     247.228
  H      295.193     625.013     246.292
  H      295.517     625.041     248.050
  P      293.161     623.563     247.870
  C      291.145     623.566     246.258
  O      291.586     623.384     247.590
  C      289.641     623.842     246.208
  O      288.934     622.712     246.810
  C      289.213     625.104     246.961
  O      288.061     625.645     246.291
  C      288.821     624.540     248.310
  O      288.023     625.446     249.050
  C      288.143     623.236     247.889
  N      288.025     622.279     248.995
  C      286.737     622.034     249.464
  O      285.733     622.584     249.025
  N      286.644     621.146     250.502
  C      287.684     620.546     251.146
  O      287.544     619.782     252.093
  C      289.029     620.882     250.632
  C      289.131     621.717     249.599
  O      293.610     623.103     249.216
  O      293.820     622.688     246.699
  H      287.165     625.585     248.600
  H      294.077     621.811     247.036
  H      285.718     620.940     250.847
  H      289.883     620.433     251.128
  H      290.108     621.988     249.201
  H      287.132     623.422     247.508
  H      289.712     624.329     248.910
  H      290.000     625.861     247.020
  H      289.321     623.885     245.153
  H      291.379     622.646     245.692
  H      291.690     624.401     245.801
  P      287.861     627.215     246.052
  C      285.495     628.054     246.640
  O      286.338     627.486     245.639
  O      288.869     627.831     245.138
  O      287.962     627.865     247.525
  H      288.293     628.773     247.459
  H      284.510     628.186     246.244
  H      285.888     629.003     246.941
  H      285.455     627.400     247.486

 6  7  8  9  10  11  12  13  14  15  16  26  31  32  33  34  35 0
 6-311+G(2d,p)
 ****
 36  37 0
 6-311+G(2d,p)
 ****
 1  2  3  4  5  17  18  19  20  21  22  23  24  25 0
 3-21G
 ****
 27  28  29  30  38  39  40  41  42  43  44  45 0
 3-21G
 ****


