%nproc=1
%NoSave
%Mem=1900MB
#P OB98/GEN NMR

erre ene a

0 1
  C      136.213     204.027      17.121
  O      136.012     202.875      16.313
  P      134.513     202.571      15.820
  C      133.647     200.881      14.053
  O      134.670     201.798      14.423
  C      134.008     200.169      12.756
  O      134.083     201.123      11.681
  C      135.361     199.472      12.772
  O      135.295     198.205      13.409
  C      135.632     199.321      11.283
  O      134.932     198.168      10.777
  C      135.025     200.611      10.706
  N      137.015     203.605       7.138
  C      135.997     202.676       7.049
  N      135.405     202.547       5.840
  N      135.594     201.941       8.051
  C      136.248     202.205       9.206
  C      137.274     203.099       9.420
  C      137.744     203.871       8.290
  O      138.685     204.661       8.296
  N      137.671     203.096      10.732
  C      136.866     202.234      11.318
  N      136.004     201.644      10.427
  O      133.977     204.014      15.384
  O      133.630     201.930      16.834
  H      135.018     198.187       9.804
  H      133.002     204.037      15.445
  H      137.271     204.157       6.340
  H      136.870     202.009      12.376
  H      134.461     200.410       9.788
  H      136.692     199.177      11.053
  H      135.581     203.174       5.071
  H      136.129     200.108      13.223
  H      134.632     201.898       5.765
  H      133.208     199.455      12.521
  H      132.708     201.425      13.909
  H      133.511     200.157      14.864
  P      136.690     197.579      13.909
  C      137.354     196.022      15.879
  O      136.327     196.743      15.226
  O      137.484     198.851      14.464
  O      137.450     196.853      12.852
  H      138.447     198.696      14.416
  H      138.305     196.557      15.840
  H      137.467     195.042      15.407
  H      137.074     195.881      16.925
  H      137.249     204.108      17.375
  H      135.632     203.941      18.015
  H      135.909     204.899      16.581

 3  4  5  6  7  8  9  10  11  12  23  26  30  31  33  0
 6-311+G(2d,p)
 ****
 35  36  37  38 0
 6-311+G(2d,p)
 ****
 1  2  13  14  15  16  17  18  19  20  21  22  24  25  27  28  29 0
 3-21G
 ****
 32  34  39  40  41  42  43  44  45  46  47  48  49 0
 3-21G
 ****


