%nproc=1
%NoSave
%Mem=1900MB
#P OB98/GEN NMR

erre ene a

0 1
  C      -24.427    -271.210     140.222
  O      -25.545    -270.791     140.987
  P      -26.309    -269.464     140.497
  C      -26.150    -267.248     141.862
  O      -25.481    -268.209     141.053
  C      -25.864    -267.523     143.350
  O      -24.445    -267.703     143.552
  C      -26.273    -266.391     144.287
  O      -27.682    -266.372     144.483
  C      -25.459    -266.762     145.529
  O      -26.113    -267.815     146.249
  C      -24.143    -267.268     144.908
  N      -19.478    -265.947     146.563
  C      -20.254    -267.019     146.826
  N      -21.496    -267.287     146.373
  C      -21.914    -266.317     145.540
  C      -21.247    -265.153     145.200
  C      -19.963    -264.981     145.742
  N      -19.173    -263.880     145.471
  N      -22.011    -264.377     144.346
  C      -23.121    -265.065     144.173
  N      -23.114    -266.248     144.864
  O      -27.639    -269.455     141.392
  O      -26.621    -269.424     139.024
  H      -26.185    -268.575     145.648
  H      -28.394    -269.086     140.889
  H      -19.825    -267.759     147.498
  H      -23.959    -264.745     143.557
  H      -23.727    -268.133     145.450
  H      -25.333    -265.916     146.219
  H      -25.938    -265.424     143.887
  H      -26.373    -268.462     143.630
  H      -27.228    -267.309     141.695
  H      -18.328    -263.768     146.016
  H      -19.597    -263.105     144.978
  H      -25.814    -266.239     141.579
  P      -28.356    -264.952     144.784
  C      -29.576    -264.692     147.040
  O      -28.319    -264.832     146.387
  O      -29.903    -265.251     144.487
  O      -27.767    -263.797     144.032
  H      -30.200    -266.069     144.934
  H      -29.415    -264.672     148.122
  H      -30.232    -265.525     146.787
  H      -30.039    -263.741     146.732
  H      -24.013    -272.098     140.652
  H      -23.687    -270.437     140.219
  H      -24.737    -271.411     139.218

 3  4  5  6  7  8  9  10  11  12  22  25  29  30  31  32 0
 6-311+G(2d,p)
 ****
 33  36  37 0
 6-311+G(2d,p)
 ****
 1  2  13  14  15  16  17  18  19  20  21  23  24  26 0
 3-21G
 ****
 27  28  34  35  38  39  40  41  42  43  44  45  46  47  48 0
 3-21G
 ****


