%nproc=1
%NoSave
%Mem=1900MB
#P OB98/GEN NMR

erre ene a

0 1
  C        8.087    -271.091      44.124
  O        9.042    -270.642      45.061
  H        7.772    -272.103      44.397
  H        8.525    -271.119      43.123
  H        7.212    -270.435      44.129
  P        9.640    -269.171      44.838
  C        8.067    -267.658      46.241
  O        9.309    -268.343      46.179
  C        7.659    -267.424      47.697
  O        7.082    -268.651      48.228
  C        8.827    -267.028      48.614
  O        8.362    -266.062      49.562
  C        9.145    -268.324      49.345
  O        9.811    -268.092      50.582
  C        7.748    -268.922      49.478
  N        9.700    -272.385      52.565
  C        9.806    -271.008      52.580
  N       10.554    -270.463      53.567
  N        9.238    -270.228      51.698
  C        8.497    -270.903      50.783
  C        8.320    -272.259      50.654
  C        8.979    -273.114      51.624
  O        8.937    -274.341      51.650
  N        7.528    -272.555      49.570
  C        7.229    -271.379      49.050
  N        7.791    -270.346      49.754
  O        8.650    -268.525      43.756
  O       11.064    -269.113      44.402
  H       10.071    -268.964      50.950
  H        9.118    -267.876      43.200
  H       10.170    -272.939      53.259
  H        6.619    -271.217      48.170
  H        7.170    -268.456      50.286
  H        9.787    -268.957      48.720
  H       10.996    -270.997      54.299
  H        9.692    -266.629      48.076
  H       10.632    -269.453      53.603
  H        6.867    -266.668      47.722
  H        7.300    -268.260      45.741
  H        8.157    -266.698      45.724
  P        9.021    -264.599      49.517
  C        7.560    -263.533      47.654
  O        7.911    -263.547      49.030
  O       10.017    -264.694      48.265
  O        9.757    -264.231      50.763
  H       10.940    -264.717      48.580
  H        6.814    -262.785      47.484
  H        7.175    -264.491      47.374
  H        8.427    -263.312      47.067

 6  7  8  9  10  11  12  13  14  15  26  29  33  34 0
 6-311+G(2d,p)
 ****
 36  38  39  40  41 0
 6-311+G(2d,p)
 ****
 1  2  3  4  5  16  17  18  19  20  21  22  23  24  25 0
 3-21G
 ****
 27  28  30  31  32  35  37  42  43  44  45  46  47 0
 3-21G
 ****
 48  49 0
 3-21G
 ****


