%nproc=1
%NoSave
%Mem=1900MB
#P OB98/GEN NMR

erre ene a

0 1
  C     -176.040    -417.412      33.041
  O     -174.842    -416.706      33.276
  H     -176.250    -418.041      33.911
  H     -175.927    -418.054      32.163
  H     -176.880    -416.731      32.894
  P     -174.469    -415.481      32.316
  C     -173.955    -413.257      33.521
  O     -174.960    -414.142      33.048
  C     -174.035    -413.110      35.046
  O     -173.727    -414.386      35.658
  C     -173.005    -412.104      35.566
  O     -173.427    -411.478      36.775
  C     -171.800    -412.981      35.862
  O     -170.903    -412.403      36.812
  C     -172.470    -414.263      36.349
  N     -168.690    -417.232      38.044
  C     -169.076    -415.979      38.475
  N     -168.362    -415.448      39.495
  N     -170.058    -415.299      37.942
  C     -170.634    -415.920      36.886
  C     -170.325    -417.150      36.350
  C     -169.260    -417.908      36.973
  O     -168.863    -419.012      36.615
  N     -171.123    -417.442      35.274
  C     -171.911    -416.393      35.154
  N     -171.669    -415.452      36.124
  O     -175.512    -415.616      31.108
  O     -173.055    -415.455      31.820
  H     -171.403    -412.262      37.636
  H     -175.175    -415.162      30.315
  H     -167.949    -417.724      38.508
  H     -172.676    -416.271      34.398
  H     -172.682    -414.206      37.422
  H     -171.240    -413.118      34.933
  H     -167.488    -415.850      39.797
  H     -172.759    -411.335      34.837
  H     -168.423    -414.433      39.611
  H     -175.057    -412.853      35.345
  H     -174.121    -412.295      33.033
  H     -172.967    -413.608      33.219
  P     -174.466    -410.260      36.684
  C     -176.754    -411.268      37.548
  O     -175.945    -410.823      36.482
  O     -174.123    -409.573      35.283
  O     -174.376    -409.289      37.821
  H     -173.784    -408.668      35.422
  H     -177.698    -411.598      37.166
  H     -176.909    -410.465      38.237
  H     -176.269    -412.079      38.049

 6  7  8  9  10  11  12  13  14  15  26  29  33  34 0
 6-311+G(2d,p)
 ****
 36  38  39  40  41 0
 6-311+G(2d,p)
 ****
 1  2  3  4  5  16  17  18  19  20  21  22  23  24  25 0
 3-21G
 ****
 27  28  30  31  32  35  37  42  43  44  45  46  47 0
 3-21G
 ****
 48  49 0
 3-21G
 ****


