%nproc=1
%NoSave
%Mem=1900MB
#P OB98/GEN NMR

erre ene a

0 1
  C      114.712     -20.504     -44.756
  O      115.161     -20.877     -43.467
  P      116.661     -21.393     -43.251
  C      118.113     -23.216     -44.341
  O      116.801     -22.839     -43.933
  C      118.380     -24.678     -43.994
  O      118.459     -24.862     -42.562
  C      117.290     -25.634     -44.455
  O      117.312     -25.831     -45.856
  C      117.617     -26.870     -43.624
  O      118.686     -27.619     -44.220
  C      118.080     -26.236     -42.294
  N      117.065     -26.316     -41.255
  C      116.762     -27.599     -40.788
  O      117.282     -28.590     -41.305
  N      115.872     -27.725     -39.749
  C      115.247     -26.678     -39.306
  N      114.422     -26.855     -38.237
  C      115.421     -25.330     -39.885
  C      116.353     -25.218     -40.830
  O      117.167     -21.310     -41.848
  O      117.535     -20.463     -44.222
  H      118.285     -20.096     -43.716
  H      118.798     -28.423     -43.675
  H      114.825     -24.503     -39.524
  H      116.564     -24.260     -41.296
  H      118.993     -26.731     -41.937
  H      116.760     -27.545     -43.528
  H      116.309     -25.245     -44.156
  H      119.348     -24.959     -44.432
  H      114.342     -27.790     -37.856
  H      118.836     -22.577     -43.825
  H      114.152     -26.089     -37.625
  H      118.214     -23.049     -45.419
  P      115.894     -25.991     -46.586
  C      113.776     -27.441     -46.235
  O      115.128     -27.211     -45.887
  O      116.288     -26.569     -48.032
  O      115.106     -24.727     -46.706
  H      115.692     -26.197     -48.707
  H      113.514     -28.466     -45.961
  H      113.611     -27.307     -47.308
  H      113.134     -26.753     -45.678
  H      113.691     -20.189     -44.701
  H      114.792     -21.341     -45.418
  H      115.314     -19.700     -45.125

 3  4  5  6  7  8  9  10  11  12  13  24  27  28  29  30  32 0
 6-311+G(2d,p)
 ****
 34  35 0
 6-311+G(2d,p)
 ****
 1  2  14  15  16  17  18  19  20  21  22  23  25  26 0
 3-21G
 ****
 31  33  36  37  38  39  40  41  42  43  44  45  46 0
 3-21G
 ****


