%nproc=1
%NoSave
%Mem=1900MB
#P OB98/GEN NMR

erre ene a

0 1
  C       71.661      80.418    -190.340
  O       70.718      79.390    -190.620
  P       69.172      79.796    -190.754
  C       67.308      80.554    -189.117
  O       68.693      80.306    -189.306
  C       67.057      81.335    -187.828
  O       68.022      82.419    -187.737
  C       65.660      81.958    -187.722
  O       65.296      81.949    -186.334
  C       65.891      83.394    -188.163
  O       64.867      84.271    -187.699
  C       67.274      83.645    -187.560
  N       67.334      88.714    -188.257
  C       66.526      87.917    -187.526
  N       66.572      86.574    -187.389
  C       67.583      86.058    -188.111
  C       68.466      86.740    -188.932
  C       68.320      88.139    -188.989
  N       69.150      88.953    -189.726
  N       69.347      85.865    -189.534
  C       69.003      84.674    -189.082
  N       67.959      84.746    -188.204
  O       68.450      78.375    -190.910
  O       68.846      80.698    -191.895
  H       64.036      84.034    -188.152
  H       68.088      78.282    -191.814
  H       65.742      88.423    -186.973
  H       69.471      83.742    -189.364
  H       67.225      83.858    -186.484
  H       65.918      83.447    -189.254
  H       64.898      81.453    -188.319
  H       67.245      80.669    -186.978
  H       66.783      79.596    -189.052
  H       69.065      89.951    -189.612
  H       69.997      88.558    -190.123
  H       66.914      81.107    -189.978
  P       63.754      81.660    -185.994
  C       61.709      83.200    -185.581
  O       62.967      83.039    -186.204
  O       63.759      81.465    -184.403
  O       63.187      80.468    -186.692
  H       63.025      80.877    -184.139
  H       61.581      84.252    -185.309
  H       61.616      82.585    -184.680
  H       60.918      82.918    -186.289
  H       72.642      79.995    -190.281
  H       71.416      80.883    -189.408
  H       71.634      81.149    -191.121

 3  4  5  6  7  8  9  10  11  12  22  25  29  30  31  32 0
 6-311+G(2d,p)
 ****
 33  36  37 0
 6-311+G(2d,p)
 ****
 1  2  13  14  15  16  17  18  19  20  21  23  24  26 0
 3-21G
 ****
 27  28  34  35  38  39  40  41  42  43  44  45  46  47  48 0
 3-21G
 ****


