%nproc=1
%NoSave
%Mem=1900MB
#P OB98/GEN NMR

erre ene a

0 1
  C       32.757     -41.055     124.737
  O       33.678     -41.669     125.609
  P       33.197     -42.786     126.653
  C       33.158     -42.171     129.151
  O       32.532     -41.996     127.882
  C       34.489     -41.425     129.187
  O       34.363     -40.099     128.610
  C       35.024     -41.174     130.589
  O       35.410     -42.298     131.349
  C       36.086     -40.122     130.319
  O       37.299     -40.713     129.855
  C       35.418     -39.293     129.192
  N       34.919     -38.011     129.681
  C       35.813     -36.946     129.625
  O       36.963     -37.044     129.198
  N       35.352     -35.754     130.112
  C       34.129     -35.537     130.680
  O       33.798     -34.450     131.136
  C       33.235     -36.700     130.723
  C       33.660     -37.868     130.232
  O       34.237     -43.782     127.043
  O       31.918     -43.430     125.933
  H       37.064     -41.373     129.175
  H       31.195     -42.804     125.750
  H       35.989     -34.973     130.094
  H       32.252     -36.562     131.155
  H       33.017     -38.743     130.255
  H       36.140     -39.098     128.386
  H       36.332     -39.548     131.221
  H       34.231     -40.685     131.173
  H       35.207     -41.977     128.574
  H       33.341     -43.237     129.314
  H       32.481     -41.820     129.940
  P       35.516     -42.292     132.947
  C       37.921     -41.777     133.763
  O       36.667     -41.261     133.373
  O       35.494     -43.620     133.628
  O       34.186     -41.480     133.350
  H       33.865     -41.806     134.211
  H       38.566     -40.943     134.061
  H       38.394     -42.303     132.929
  H       37.811     -42.451     134.617
  H       33.268     -40.343     124.123
  H       32.002     -40.557     125.309
  H       32.302     -41.799     124.117

 3  4  5  6  7  8  9  10  11  12  13  23  28  29  30  31  32 0
 6-311+G(2d,p)
 ****
 33  34 0
 6-311+G(2d,p)
 ****
 1  2  14  15  16  17  18  19  20  21  22  24  25  26  27 0
 3-21G
 ****
 35  36  37  38  39  40  41  42  43  44  45 0
 3-21G
 ****


