%nproc=1
%NoSave
%Mem=1900MB
#P OB98/GEN NMR

erre ene a

0 1
  C      570.546    -431.563      -2.708
  O      569.723    -432.645      -2.271
  P      568.254    -432.335      -1.704
  C      568.586    -432.644       0.832
  O      568.394    -431.715      -0.226
  C      567.613    -432.418       1.994
  O      567.710    -433.495       2.966
  C      567.831    -431.098       2.750
  O      566.536    -430.624       3.155
  C      568.629    -431.546       3.960
  O      568.595    -430.597       5.018
  C      567.958    -432.893       4.254
  N      568.771    -433.752       5.105
  C      568.885    -433.396       6.453
  O      568.395    -432.336       6.853
  N      569.571    -434.232       7.293
  C      570.215    -435.241       6.803
  N      570.868    -436.060       7.674
  C      570.264    -435.551       5.360
  C      569.507    -434.783       4.585
  O      567.273    -433.450      -1.823
  O      567.800    -431.070      -2.576
  H      569.195    -430.898       5.731
  H      566.835    -431.125      -2.732
  H      570.884    -436.351       4.992
  H      569.471    -434.928       3.512
  H      566.978    -432.747       4.740
  H      569.678    -431.694       3.673
  H      568.324    -430.328       2.155
  H      566.596    -432.436       1.584
  H      570.851    -435.826       8.659
  H      569.615    -432.554       1.199
  H      571.356    -436.904       7.374
  H      568.502    -433.662       0.426
  P      565.893    -429.375       2.380
  C      565.187    -427.984       4.462
  O      566.021    -428.081       3.329
  O      564.323    -429.698       2.474
  O      566.289    -429.203       0.951
  H      563.868    -429.256       1.741
  H      565.589    -427.218       5.134
  H      565.129    -428.933       5.004
  H      564.173    -427.685       4.151
  H      571.484    -431.945      -3.053
  H      570.713    -430.890      -1.893
  H      570.058    -431.043      -3.506

 3  4  5  6  7  8  9  10  11  12  13  23  27  28  29  30  32 0
 6-311+G(2d,p)
 ****
 34  35 0
 6-311+G(2d,p)
 ****
 1  2  14  15  16  17  18  19  20  21  22  24  25  26 0
 3-21G
 ****
 31  33  36  37  38  39  40  41  42  43  44  45  46 0
 3-21G
 ****


