%nproc=1
%NoSave
%Mem=1900MB
#P OB98/GEN NMR

erre ene a

0 1
  C     -480.987    -779.853     -66.665
  O     -481.289    -780.882     -67.612
  P     -480.385    -782.198     -67.661
  C     -481.775    -783.995     -66.422
  O     -481.326    -783.496     -67.678
  C     -483.294    -784.180     -66.434
  O     -483.980    -782.927     -66.160
  C     -483.827    -784.627     -67.788
  O     -483.515    -785.942     -68.192
  C     -485.305    -784.263     -67.691
  O     -486.053    -785.269     -67.002
  C     -485.248    -782.959     -66.850
  N     -485.443    -781.761     -67.665
  C     -486.713    -781.192     -67.625
  O     -487.650    -781.678     -66.997
  N     -486.878    -780.058     -68.379
  C     -485.938    -779.470     -69.170
  O     -486.156    -778.469     -69.835
  C     -484.615    -780.119     -69.184
  C     -484.430    -781.217     -68.440
  O     -479.252    -782.249     -66.689
  O     -479.816    -782.179     -69.170
  H     -486.978    -784.954     -66.961
  H     -478.881    -782.450     -69.137
  H     -487.801    -779.630     -68.356
  H     -483.848    -779.685     -69.804
  H     -483.467    -781.712     -68.436
  H     -486.025    -782.966     -66.077
  H     -485.754    -784.137     -68.681
  H     -483.391    -783.968     -68.555
  H     -483.574    -784.872     -65.644
  H     -481.480    -783.314     -65.618
  H     -481.265    -784.948     -66.221
  P     -483.104    -786.322     -69.697
  C     -480.869    -785.058     -69.339
  O     -481.515    -786.220     -69.820
  O     -483.919    -785.740     -70.800
  O     -483.324    -787.920     -69.690
  H     -483.621    -788.197     -70.579
  H     -479.796    -785.154     -69.528
  H     -481.032    -784.944     -68.269
  H     -481.237    -784.169     -69.872
  H     -481.689    -779.053     -66.772
  H     -479.998    -779.486     -66.841
  H     -481.049    -780.251     -65.674

 3  4  5  6  7  8  9  10  11  12  13  23  28  29  30  31  32 0
 6-311+G(2d,p)
 ****
 33  34 0
 6-311+G(2d,p)
 ****
 1  2  14  15  16  17  18  19  20  21  22  24  25  26  27 0
 3-21G
 ****
 35  36  37  38  39  40  41  42  43  44  45 0
 3-21G
 ****


