%nproc=1
%NoSave
%Mem=1900MB
#P OB98/GEN NMR

erre ene a

0 1
  C      589.552     264.625    -315.083
  O      589.634     263.346    -314.452
  P      589.902     263.273    -312.878
  C      591.888     261.640    -312.704
  O      590.484     261.826    -312.513
  C      592.260     260.151    -312.635
  O      592.465     259.748    -311.246
  C      591.160     259.239    -313.209
  O      591.748     258.073    -313.816
  C      590.410     258.787    -311.966
  O      589.679     257.584    -312.211
  C      591.568     258.648    -310.964
  N      588.412     256.591    -307.492
  C      588.656     256.267    -308.784
  N      589.526     256.848    -309.639
  C      590.193     257.859    -309.043
  C      590.060     258.287    -307.729
  C      589.105     257.619    -306.938
  N      588.842     257.963    -305.629
  N      590.912     259.349    -307.470
  C      591.516     259.576    -308.620
  N      591.146     258.676    -309.584
  O      588.775     263.729    -312.003
  O      591.183     264.221    -312.685
  H      589.137     257.402    -311.423
  H      591.070     264.776    -311.891
  H      588.074     255.442    -309.181
  H      592.218     260.377    -308.808
  H      592.129     257.714    -311.123
  H      589.709     259.563    -311.654
  H      590.503     259.733    -313.934
  H      593.209     259.987    -313.149
  H      592.438     262.199    -311.945
  H      588.059     257.500    -305.185
  H      589.241     258.811    -305.260
  H      592.175     262.077    -313.667
  P      592.170     258.231    -315.361
  C      590.074     256.973    -316.309
  O      591.472     257.003    -316.134
  O      593.650     258.385    -315.563
  O      591.326     259.519    -315.812
  H      590.383     259.483    -315.589
  H      589.820     256.140    -316.957
  H      589.721     257.901    -316.764
  H      589.582     256.830    -315.344
  H      589.370     264.495    -316.129
  H      590.473     265.151    -314.943
  H      588.751     265.186    -314.649

 3  4  5  6  7  8  9  10  11  12  22  25  29  30  31  32 0
 6-311+G(2d,p)
 ****
 33  36  37 0
 6-311+G(2d,p)
 ****
 1  2  13  14  15  16  17  18  19  20  21  23  24  26 0
 3-21G
 ****
 27  28  34  35  38  39  40  41  42  43  44  45  46  47  48 0
 3-21G
 ****


