%nproc=1
%NoSave
%Mem=1900MB
#P OB98/GEN NMR

erre ene a

0 1
  C      620.878     561.082    -306.524
  O      619.802     561.821    -307.113
  P      618.791     562.633    -306.168
  C      617.241     562.546    -308.249
  O      617.621     563.269    -307.072
  C      616.178     563.337    -309.025
  O      614.953     563.466    -308.263
  C      616.606     564.772    -309.321
  O      617.647     564.943    -310.262
  C      615.279     565.436    -309.627
  O      614.874     565.236    -310.974
  C      614.330     564.709    -308.648
  N      613.985     565.517    -307.476
  C      613.223     566.654    -307.722
  O      612.879     567.009    -308.844
  N      612.889     567.400    -306.615
  C      613.274     567.134    -305.330
  O      612.959     567.845    -304.380
  C      614.088     565.933    -305.136
  C      614.410     565.187    -306.203
  O      619.426     563.574    -305.200
  O      618.021     561.460    -305.389
  H      614.789     564.269    -311.120
  H      617.908     561.739    -304.460
  H      612.332     568.224    -306.771
  H      614.416     565.697    -304.125
  H      615.016     564.299    -306.088
  H      613.393     564.447    -309.154
  H      615.335     566.532    -309.476
  H      616.977     565.211    -308.382
  H      615.944     562.794    -309.948
  H      616.854     561.567    -307.970
  H      618.136     562.367    -308.863
  P      619.019     565.713    -309.920
  C      619.500     567.033    -312.105
  O      619.830     565.922    -311.287
  O      619.787     565.252    -308.730
  O      618.471     567.202    -309.633
  H      619.046     567.612    -308.953
  H      620.144     567.012    -312.999
  H      619.684     567.959    -311.559
  H      618.457     566.981    -312.422
  H      621.448     560.606    -307.295
  H      620.481     560.340    -305.863
  H      621.509     561.748    -305.974

 3  4  5  6  7  8  9  10  11  12  13  23  28  29  30  31  32 0
 6-311+G(2d,p)
 ****
 33  34 0
 6-311+G(2d,p)
 ****
 1  2  14  15  16  17  18  19  20  21  22  24  25  26  27 0
 3-21G
 ****
 35  36  37  38  39  40  41  42  43  44  45 0
 3-21G
 ****


