%nproc=1
%NoSave
%Mem=1900MB
#P OB98/GEN NMR

erre ene a

0 1
  C      202.950    -895.630     313.352
  O      202.156    -894.560     312.882
  P      201.203    -894.810     311.595
  C      199.059    -895.300     313.008
  O      200.051    -895.800     312.118
  C      197.721    -896.040     312.809
  O      197.402    -896.070     311.387
  C      197.717    -897.490     313.339
  O      196.394    -897.720     313.884
  C      197.923    -898.300     312.073
  O      197.435    -899.640     312.234
  C      197.121    -897.470     311.063
  N      197.485    -897.750     309.669
  C      196.992    -898.930     309.140
  O      196.350    -899.760     309.789
  N      197.302    -899.180     307.824
  C      198.119    -898.400     307.032
  O      198.378    -898.640     305.867
  C      198.710    -897.210     307.698
  C      198.373    -896.980     308.978
  O      202.153    -895.750     310.728
  O      200.753    -893.550     310.937
  H      202.699    -896.380     311.246
  H      196.573    -899.610     312.699
  H      196.924    -900.000     307.408
  H      199.410    -896.620     307.143
  H      198.817    -896.110     309.493
  H      196.045    -897.630     311.183
  H      198.998    -898.340     311.812
  H      198.483    -897.670     314.092
  H      196.940    -895.460     313.330
  H      198.887    -894.220     312.834
  H      199.436    -895.410     314.049
  P      196.271    -897.960     315.468
  C      194.162    -896.410     315.652
  O      195.460    -896.700     316.094
  O      197.782    -897.670     315.934
  O      195.795    -899.330     315.861
  H      198.155    -896.860     315.554
  H      193.709    -895.690     316.363
  H      193.537    -897.310     315.649
  H      194.178    -895.970     314.658
  H      203.517    -895.308     314.200
  H      203.616    -895.947     312.577
  H      202.318    -896.446     313.635

 3  4  5  6  7  8  9  10  11  12  13  24  28  29  30  31  32 0
 6-311+G(2d,p)
 ****
 33  34 0
 6-311+G(2d,p)
 ****
 1  2  14  15  16  17  18  19  20  21  22  23  25  26  27 0
 3-21G
 ****
 35  36  37  38  39  40  41  42  43  44  45 0
 3-21G
 ****


