%nproc=1
%NoSave
%Mem=1900MB
#P OB98/GEN NMR

erre ene a

0 1
  C      247.105     181.990     190.024
  O      247.675     183.188     190.530
  P      246.972     184.572     190.116
  C      246.275     185.053     192.570
  O      245.848     184.837     191.231
  C      246.066     186.513     192.972
  O      244.710     186.913     192.680
  C      246.271     186.800     194.448
  O      247.639     186.966     194.784
  C      245.526     188.118     194.592
  O      246.352     189.197     194.112
  C      244.326     187.917     193.664
  N      240.491     189.366     196.722
  C      241.569     190.029     196.257
  N      242.552     189.566     195.457
  C      242.365     188.270     195.163
  C      241.325     187.453     195.602
  C      240.349     188.049     196.413
  N      239.235     187.381     196.858
  N      241.477     186.178     195.098
  C      242.567     186.223     194.368
  N      243.138     187.466     194.370
  O      246.119     184.174     188.817
  O      247.910     185.701     189.850
  H      247.112     189.256     194.706
  H      245.951     184.965     188.275
  H      241.646     191.069     196.558
  H      242.982     185.385     193.815
  H      244.058     188.824     193.113
  H      245.274     188.353     195.629
  H      245.784     186.036     195.079
  H      246.735     187.128     192.362
  H      247.335     184.811     192.651
  H      238.494     187.922     197.279
  H      239.036     186.468     196.464
  H      245.714     184.391     193.236
  P      248.034     186.799     196.335
  C      249.032     184.405     196.147
  O      247.980     185.222     196.615
  O      246.745     187.373     197.093
  O      249.288     187.496     196.719
  H      246.993     187.693     197.982
  H      249.000     183.447     196.673
  H      250.000     184.872     196.317
  H      248.904     184.218     195.075
  H      247.668     181.151     190.375
  H      247.124     182.010     188.954
  H      246.093     181.907     190.361

 3  4  5  6  7  8  9  10  11  12  22  25  29  30  31  32 0
 6-311+G(2d,p)
 ****
 33  36  37 0
 6-311+G(2d,p)
 ****
 1  2  13  14  15  16  17  18  19  20  21  23  24  26 0
 3-21G
 ****
 27  28  34  35  38  39  40  41  42  43  44  45  46  47  48 0
 3-21G
 ****


