%nproc=1
%NoSave
%Mem=1900MB
#P OB98/GEN NMR

erre ene a

0 1
  C     -276.856    -237.378     454.385
  O     -276.230    -237.427     455.667
  P     -276.935    -238.222     456.862
  C     -276.678    -240.529     458.005
  O     -276.466    -239.754     456.830
  C     -276.021    -241.904     457.851
  O     -276.546    -242.620     456.706
  C     -274.520    -241.820     457.596
  O     -273.715    -241.378     458.669
  C     -274.213    -243.189     457.011
  O     -274.034    -244.168     458.031
  C     -275.500    -243.474     456.202
  N     -275.311    -243.292     454.762
  C     -274.343    -244.093     454.162
  O     -273.639    -244.883     454.789
  N     -274.184    -243.927     452.813
  C     -274.857    -243.036     452.029
  O     -274.655    -242.911     450.828
  C     -275.848    -242.200     452.721
  C     -276.029    -242.362     454.035
  O     -278.403    -238.009     457.004
  O     -276.170    -237.659     458.161
  H     -273.409    -243.797     458.686
  H     -276.833    -237.531     458.867
  H     -273.491    -244.503     452.363
  H     -276.400    -241.478     452.133
  H     -276.759    -241.759     454.563
  H     -275.832    -244.510     456.366
  H     -273.294    -243.176     456.416
  H     -274.358    -241.089     456.787
  H     -276.241    -242.497     458.738
  H     -277.747    -240.640     458.187
  H     -276.271    -239.990     458.866
  P     -273.158    -239.879     458.794
  C     -274.210    -237.572     459.332
  O     -274.287    -238.970     459.484
  O     -272.453    -239.310     457.608
  O     -272.093    -240.038     459.990
  H     -271.356    -239.416     459.830
  H     -275.044    -237.118     459.878
  H     -274.287    -237.292     458.278
  H     -273.271    -237.192     459.752
  H     -276.249    -236.808     453.713
  H     -277.817    -236.917     454.475
  H     -276.971    -238.372     454.006

 3  4  5  6  7  8  9  10  11  12  13  23  28  29  30  31  32 0
 6-311+G(2d,p)
 ****
 33  34 0
 6-311+G(2d,p)
 ****
 1  2  14  15  16  17  18  19  20  21  22  24  25  26  27 0
 3-21G
 ****
 35  36  37  38  39  40  41  42  43  44  45 0
 3-21G
 ****


