%nproc=1
%NoSave
%Mem=1900MB
#P OB98/GEN NMR

erre ene a

0 1
  C     -352.025    -107.875    -119.196
  O     -351.602    -108.671    -120.283
  H     -351.831    -108.418    -118.264
  H     -353.103    -107.692    -119.267
  H     -351.487    -106.921    -119.164
  P     -351.508    -108.010    -121.744
  C     -353.335    -109.670    -122.517
  O     -352.049    -109.124    -122.769
  C     -353.282    -111.198    -122.587
  O     -352.731    -111.572    -123.883
  C     -352.393    -111.837    -121.498
  O     -352.966    -113.099    -121.127
  C     -351.099    -112.051    -122.257
  O     -350.275    -113.013    -121.628
  C     -351.620    -112.462    -123.630
  N     -350.583    -112.372    -124.650
  C     -350.618    -113.321    -125.662
  O     -351.457    -114.230    -125.732
  N     -349.604    -113.270    -126.582
  C     -348.517    -112.435    -126.519
  O     -347.593    -112.484    -127.312
  C     -348.503    -111.485    -125.388
  C     -349.526    -111.501    -124.525
  O     -350.193    -107.408    -122.108
  O     -352.697    -106.933    -121.765
  H     -350.791    -113.816    -121.423
  H     -352.535    -106.252    -122.451
  H     -349.619    -113.944    -127.331
  H     -347.653    -110.820    -125.302
  H     -349.545    -110.818    -123.676
  H     -352.018    -113.485    -123.607
  H     -350.529    -111.117    -122.314
  H     -352.283    -111.199    -120.608
  H     -354.305    -111.593    -122.549
  H     -354.024    -109.278    -123.278
  H     -353.683    -109.347    -121.525
  P     -354.163    -113.202    -120.053
  C     -352.566    -113.887    -118.162
  O     -353.768    -114.211    -118.865
  O     -355.501    -113.476    -120.662
  O     -354.181    -111.766    -119.341
  H     -355.097    -111.448    -119.277
  H     -352.393    -114.615    -117.397
  H     -352.663    -112.918    -117.718
  H     -351.743    -113.886    -118.845

 6  7  8  9  10  11  12  13  14  15  16  26  31  32  33  34  35 0
 6-311+G(2d,p)
 ****
 36  37 0
 6-311+G(2d,p)
 ****
 1  2  3  4  5  17  18  19  20  21  22  23  24  25 0
 3-21G
 ****
 27  28  29  30  38  39  40  41  42  43  44  45 0
 3-21G
 ****


