%nproc=1
%NoSave
%Mem=1900MB
#P OB98/GEN NMR

erre ene a

0 1
  C      453.644     -52.156     168.283
  O      452.325     -51.647     168.254
  H      453.894     -52.416     169.315
  H      454.350     -51.398     167.933
  H      453.729     -53.055     167.667
  P      451.651     -51.332     166.834
  C      449.400     -52.593     166.835
  O      450.062     -51.353     167.055
  C      448.171     -52.690     167.740
  O      448.580     -52.795     169.124
  C      447.257     -51.474     167.669
  O      446.477     -51.489     166.487
  C      446.467     -51.638     168.957
  O      445.403     -52.590     168.793
  C      447.545     -52.170     169.922
  N      448.101     -51.135     170.789
  C      447.397     -50.862     171.962
  O      446.347     -51.421     172.264
  N      447.936     -49.892     172.766
  C      449.014     -49.110     172.468
  O      449.403     -48.193     173.184
  C      449.698     -49.423     171.206
  C      449.222     -50.407     170.439
  O      452.141     -52.151     165.689
  O      451.956     -49.773     166.611
  H      444.843     -52.519     169.595
  H      452.667     -49.673     165.951
  H      447.435     -49.669     173.610
  H      450.569     -48.834     170.943
  H      449.712     -50.650     169.503
  H      447.124     -52.963     170.560
  H      446.012     -50.702     169.283
  H      447.849     -50.554     167.729
  H      447.624     -53.608     167.478
  H      450.092     -53.410     167.071
  H      449.112     -52.660     165.780
  P      446.650     -50.327     165.401
  C      446.070     -51.633     163.262
  O      445.648     -50.636     164.190
  O      448.060     -50.035     164.998
  O      445.986     -49.048     166.101
  H      446.657     -48.348     166.201
  H      445.325     -51.752     162.503
  H      446.208     -52.562     163.775
  H      446.993     -51.333     162.812

 6  7  8  9  10  11  12  13  14  15  16  26  31  32  33  34  35 0
 6-311+G(2d,p)
 ****
 36  37 0
 6-311+G(2d,p)
 ****
 1  2  3  4  5  17  18  19  20  21  22  23  24  25 0
 3-21G
 ****
 27  28  29  30  38  39  40  41  42  43  44  45 0
 3-21G
 ****


