%nproc=1
%NoSave
%Mem=1900MB
#P OB98/GEN NMR

erre ene a

0 1
  C       38.666      15.707      32.746
  O       37.714      15.288      33.705
  H       38.625      16.796      32.664
  H       38.429      15.270      31.772
  H       39.674      15.412      33.054
  P       37.734      13.734      34.110
  C       39.564      12.178      35.171
  O       39.223      13.441      34.630
  C       40.614      12.329      36.273
  O       41.792      12.958      35.709
  C       40.147      13.183      37.453
  O       40.712      12.647      38.651
  C       40.769      14.540      37.170
  O       40.911      15.324      38.351
  C       42.088      14.130      36.495
  N       42.651      15.201      35.676
  C       43.393      16.180      36.343
  O       43.536      16.124      37.565
  N       43.919      17.221      35.623
  C       43.672      17.314      34.354
  N       44.202      18.384      33.701
  C       42.858      16.330      33.615
  C       42.392      15.305      34.328
  O       37.685      13.022      32.678
  O       36.642      13.325      35.040
  H       40.045      15.349      38.815
  H       38.283      13.423      32.026
  H       42.670      16.457      32.560
  H       41.792      14.531      33.866
  H       42.833      13.846      37.249
  H       40.143      15.102      36.467
  H       39.060      13.225      37.542
  H       40.916      11.329      36.605
  H       44.734      19.046      34.250
  H       39.953      11.521      34.387
  H       44.029      18.587      32.728
  H       38.652      11.724      35.573
  P       39.771      11.875      39.690
  C       38.675       9.534      39.603
  O       39.861      10.299      39.419
  O       38.390      12.417      39.839
  O       40.577      12.029      41.074
  H       39.925      12.208      41.779
  H       38.877       8.505      39.389
  H       37.913       9.892      38.942
  H       38.343       9.629      40.616

 6  7  8  9  10  11  12  13  14  15  16  26  30  31  32  33  35 0
 6-311+G(2d,p)
 ****
 37  38 0
 6-311+G(2d,p)
 ****
 1  2  3  4  5  17  18  19  20  21  22  23  24  25 0
 3-21G
 ****
 27  28  29  34  36  39  40  41  42  43  44  45  46 0
 3-21G
 ****


