%nproc=1
%NoSave
%Mem=1900MB
#P OB98/GEN NMR

erre ene a

0 1
  C     -201.770     303.928    -219.607
  O     -201.774     302.729    -218.845
  P     -201.092     301.388    -219.407
  C     -199.592     300.391    -217.570
  O     -199.674     301.300    -218.665
  C     -198.831     301.040    -216.414
  O     -199.641     302.114    -215.876
  C     -198.534     300.124    -215.222
  O     -197.370     299.328    -215.360
  C     -198.311     301.160    -214.124
  O     -196.986     301.716    -214.243
  C     -199.362     302.218    -214.457
  N     -201.587     302.682    -209.869
  C     -200.340     302.985    -210.309
  N     -199.819     302.815    -211.543
  C     -200.741     302.311    -212.381
  C     -202.050     301.960    -212.081
  C     -202.470     302.163    -210.756
  N     -203.747     301.881    -210.319
  N     -202.685     301.457    -213.203
  C     -201.782     301.520    -214.153
  N     -200.597     302.034    -213.710
  O     -201.056     301.288    -220.896
  O     -201.925     300.206    -218.723
  H     -196.359     301.023    -213.958
  H     -201.764     299.367    -219.199
  H     -199.672     303.414    -209.564
  H     -201.940     301.207    -215.174
  H     -199.008     303.240    -214.270
  H     -198.388     300.736    -213.117
  H     -199.408     299.511    -214.963
  H     -197.906     301.476    -216.810
  H     -199.053     299.500    -217.906
  H     -203.994     302.179    -209.395
  H     -204.445     301.650    -211.012
  H     -200.599     300.092    -217.263
  P     -197.563     297.849    -215.953
  C     -195.611     297.994    -217.698
  O     -197.004     297.904    -217.453
  O     -198.936     297.288    -215.802
  O     -196.441     297.011    -215.174
  H     -195.524     297.239    -215.395
  H     -195.438     297.857    -218.766
  H     -195.068     297.215    -217.149
  H     -195.246     298.983    -217.399
  H     -202.271     304.700    -219.060
  H     -202.276     303.762    -220.535
  H     -200.760     304.225    -219.799

 3  4  5  6  7  8  9  10  11  12  22  25  29  30  31  32 0
 6-311+G(2d,p)
 ****
 33  36  37 0
 6-311+G(2d,p)
 ****
 1  2  13  14  15  16  17  18  19  20  21  23  24  26 0
 3-21G
 ****
 27  28  34  35  38  39  40  41  42  43  44  45  46  47  48 0
 3-21G
 ****


