%nproc=1
%NoSave
%Mem=1900MB
#P OB98/GEN NMR

erre ene a

0 1
  C        5.402      21.048      11.247
  O        6.729      21.402      10.901
  P        6.962      22.354       9.631
  C        6.376      24.874       9.176
  O        6.111      23.687       9.900
  C        5.139      25.298       8.379
  O        4.865      24.294       7.363
  C        3.865      25.458       9.219
  O        3.116      26.540       8.653
  C        3.147      24.138       8.997
  O        1.755      24.222       9.257
  C        3.501      23.865       7.531
  N        3.353      22.460       7.150
  C        2.065      21.955       7.012
  O        1.046      22.613       7.213
  N        1.979      20.634       6.657
  C        3.026      19.773       6.496
  O        2.890      18.595       6.195
  C        4.361      20.351       6.702
  C        4.461      21.646       7.003
  O        6.130      21.580       8.507
  O        8.398      22.583       9.308
  H        5.326      21.157       8.853
  H        1.633      24.323      10.219
  H        1.054      20.256       6.515
  H        5.217      19.696       6.598
  H        5.434      22.095       7.161
  H        2.884      24.490       6.874
  H        3.573      23.377       9.660
  H        4.080      25.665      10.271
  H        5.371      26.233       7.855
  H        7.203      24.700       8.484
  H        6.679      25.662       9.873
  P        2.166      27.398       9.628
  C        2.711      28.915      11.690
  O        3.028      27.777      10.923
  O        1.198      26.239      10.171
  O        1.423      28.510       8.965
  H        1.681      25.455      10.475
  H        3.171      28.815      12.676
  H        1.630      29.022      11.819
  H        3.111      29.809      11.205
  H        5.415      20.415      12.109
  H        4.947      20.529      10.430
  H        4.842      21.933      11.463

 3  4  5  6  7  8  9  10  11  12  13  24  28  29  30  31  32 0
 6-311+G(2d,p)
 ****
 33  34 0
 6-311+G(2d,p)
 ****
 1  2  14  15  16  17  18  19  20  21  22  23  25  26  27 0
 3-21G
 ****
 35  36  37  38  39  40  41  42  43  44  45 0
 3-21G
 ****


