%nproc=1
%NoSave
%Mem=1900MB
#P OB98/GEN NMR

erre ene a

0 1
  C     -282.186    -437.369     216.688
  O     -281.113    -438.213     217.056
  H     -282.492    -436.793     217.568
  H     -283.039    -437.967     216.343
  H     -281.868    -436.681     215.902
  P     -280.537    -439.182     215.908
  C     -279.994    -441.526     216.830
  O     -279.552    -440.183     216.689
  C     -279.568    -442.098     218.183
  O     -278.152    -441.848     218.368
  C     -280.306    -441.463     219.372
  O     -280.569    -442.465     220.355
  C     -279.303    -440.466     219.925
  O     -279.515    -440.185     221.303
  C     -277.972    -441.159     219.614
  N     -275.792    -437.130     221.871
  C     -276.787    -437.959     222.260
  N     -277.295    -439.015     221.608
  C     -276.640    -439.223     220.435
  C     -275.611    -438.459     219.903
  C     -275.202    -437.362     220.678
  N     -274.207    -436.493     220.266
  N     -275.243    -438.956     218.672
  C     -276.010    -440.005     218.473
  N     -276.881    -440.198     219.509
  O     -279.940    -438.498     214.724
  O     -281.802    -440.116     215.596
  H     -280.279    -439.573     221.376
  H     -282.240    -440.399     216.422
  H     -277.231    -437.733     223.233
  H     -275.983    -440.656     217.598
  H     -277.693    -441.891     220.385
  H     -279.378    -439.522     219.369
  H     -281.237    -440.983     219.073
  H     -279.709    -443.186     218.166
  H     -279.573    -442.146     216.022
  H     -273.953    -435.732     220.879
  H     -273.738    -436.655     219.380
  H     -281.086    -441.537     216.740
  P     -281.976    -442.426     221.106
  C     -281.469    -443.355     223.480
  O     -282.015    -443.630     222.184
  O     -283.190    -442.307     220.257
  O     -281.822    -441.138     222.067
  H     -282.684    -440.683     222.111
  H     -281.555    -444.226     224.095
  H     -282.007    -442.547     223.929
  H     -280.438    -443.087     223.383

 6  7  8  9  10  11  12  13  14  15  25  28  32  33  34  35 0
 6-311+G(2d,p)
 ****
 36  39  40 0
 6-311+G(2d,p)
 ****
 1  2  3  4  5  16  17  18  19  20  21  22  23  24 0
 3-21G
 ****
 26  27  29  30  31  37  38  41  42  43  44  45  46  47 0
 3-21G
 ****
 48 0
 3-21G
 ****


