%nproc=1
%NoSave
%Mem=1900MB
#P OB98/GEN NMR

erre ene a

0 1
  C      -10.166     -11.156     -44.859
  O      -11.487     -10.697     -45.090
  P      -12.094      -9.623     -44.062
  C      -13.772      -8.522     -45.717
  O      -13.590      -9.320     -44.555
  C      -15.159      -8.759     -46.306
  O      -15.313     -10.133     -46.718
  C      -16.302      -8.502     -45.334
  O      -16.622      -7.125     -45.227
  C      -17.435      -9.259     -46.008
  O      -17.987      -8.468     -47.077
  C      -16.710     -10.487     -46.572
  N      -19.901     -13.240     -43.775
  C      -20.164     -12.224     -44.672
  N      -21.456     -11.851     -44.796
  N      -19.246     -11.629     -45.387
  C      -17.996     -12.102     -45.152
  C      -17.612     -13.104     -44.290
  C      -18.638     -13.745     -43.498
  O      -18.462     -14.612     -42.650
  N      -16.259     -13.308     -44.333
  C      -15.822     -12.435     -45.218
  N      -16.832     -11.650     -45.711
  O      -11.308      -8.278     -44.428
  O      -11.948      -9.986     -42.623
  H      -18.376      -7.672     -46.663
  H      -11.393      -7.633     -43.700
  H      -20.644     -13.663     -43.244
  H      -14.788     -12.323     -45.519
  H      -17.081     -10.762     -47.564
  H      -18.258      -9.490     -45.326
  H      -22.202     -12.226     -44.229
  H      -16.099      -8.950     -44.353
  H      -21.671     -11.066     -45.399
  H      -15.262      -8.125     -47.197
  H      -13.011      -8.783     -46.455
  H      -13.648      -7.467     -45.452
  P      -16.253      -6.403     -43.841
  C      -15.342      -4.178     -44.825
  O      -16.385      -4.834     -44.130
  O      -14.676      -6.641     -43.720
  O      -16.998      -6.922     -42.657
  H      -14.401      -6.631     -42.784
  H      -15.706      -3.204     -45.165
  H      -15.026      -4.757     -45.697
  H      -14.492      -4.023     -44.156
  H       -9.896     -11.862     -45.616
  H      -10.114     -11.626     -43.899
  H       -9.490     -10.327     -44.887

 3  4  5  6  7  8  9  10  11  12  23  26  30  31 0
 6-311+G(2d,p)
 ****
 33  35  36  37  38 0
 6-311+G(2d,p)
 ****
 1  2  13  14  15  16  17  18  19  20  21  22  24  25 0
 3-21G
 ****
 27  28  29  32  34  39  40  41  42  43  44  45  46  47  48  49 0
 3-21G
 ****


