%nproc=1
%NoSave
%Mem=1900MB
#P OB98/GEN NMR

erre ene a

0 1
  C      522.702    1202.386     611.218
  O      521.617    1202.758     610.389
  H      522.973    1201.343     610.992
  H      522.402    1202.458     612.265
  H      523.569    1203.026     611.032
  P      521.097    1204.269     610.543
  C      520.736    1204.388     613.113
  O      521.535    1204.750     612.010
  C      521.573    1204.424     614.404
  O      521.828    1205.817     614.759
  C      520.873    1203.772     615.623
  O      521.880    1203.227     616.501
  C      520.240    1204.989     616.286
  O      519.845    1204.681     617.601
  C      521.339    1206.007     616.112
  N      522.882    1210.824     616.782
  C      523.574    1209.674     616.533
  N      523.083    1208.424     616.365
  C      521.744    1208.441     616.433
  C      520.917    1209.512     616.698
  C      521.544    1210.748     616.878
  N      520.862    1211.907     617.177
  N      519.579    1209.108     616.734
  C      519.608    1207.817     616.498
  N      520.904    1207.367     616.318
  O      519.505    1204.101     610.668
  O      521.469    1205.203     609.435
  H      519.800    1205.490     618.152
  H      519.092    1204.168     609.790
  H      524.654    1209.768     616.449
  H      518.751    1207.155     616.467
  H      522.191    1205.829     616.772
  H      519.321    1205.308     615.750
  H      520.160    1202.977     615.337
  H      522.549    1203.951     614.214
  H      520.350    1203.372     612.952
  H      519.902    1205.083     613.213
  H      521.392    1212.754     617.323
  H      519.851    1211.884     617.289
  P      522.192    1201.668     616.441
  C      520.794    1200.538     618.328
  O      520.925    1200.822     616.945
  O      523.216    1201.487     617.657
  O      522.805    1201.172     615.174
  H      523.967    1200.939     617.380
  H      519.902    1199.970     618.493
  H      520.740    1201.455     618.877
  H      521.641    1199.974     618.658

 6  7  8  9  10  11  12  13  14  15  25  28  32  33  34  35 0
 6-311+G(2d,p)
 ****
 36  37  40 0
 6-311+G(2d,p)
 ****
 1  2  3  4  5  16  17  18  19  20  21  22  23  24 0
 3-21G
 ****
 26  27  29  30  31  38  39 41  42  43  44  45  46  47  48 0
 3-21G
 ****


