%nproc=1
%NoSave
%Mem=1900MB
#P OB98/GEN NMR

erre ene a

0 1
  C      461.103    -467.359    -144.321
  O      462.444    -467.024    -144.618
  P      463.027    -467.282    -146.087
  C      463.263    -464.737    -146.611
  O      462.687    -465.979    -146.962
  C      464.402    -464.362    -147.579
  O      463.850    -464.328    -148.916
  C      465.009    -462.988    -147.337
  O      466.277    -462.930    -147.990
  C      464.032    -462.082    -148.060
  O      464.600    -460.809    -148.381
  C      463.612    -462.948    -149.283
  N      462.191    -462.746    -149.633
  C      461.862    -461.522    -150.218
  O      462.701    -460.670    -150.510
  N      460.519    -461.276    -150.378
  C      459.515    -462.114    -149.968
  O      458.353    -461.762    -149.831
  C      459.932    -463.465    -149.578
  C      461.235    -463.709    -149.405
  O      462.051    -468.402    -146.663
  O      464.456    -467.717    -146.127
  H      465.046    -460.489    -147.563
  H      462.442    -469.291    -146.553
  H      460.277    -460.333    -150.666
  H      459.157    -464.206    -149.389
  H      461.569    -464.692    -149.069
  H      464.223    -462.703    -150.167
  H      463.162    -461.905    -147.416
  H      465.110    -462.707    -146.276
  H      465.167    -465.142    -147.548
  H      463.633    -464.788    -145.582
  H      462.500    -463.952    -146.631
  P      467.322    -461.810    -147.516
  C      467.948    -463.353    -145.554
  O      467.560    -462.050    -145.947
  O      466.999    -460.399    -147.901
  O      468.702    -462.301    -148.158
  H      469.341    -461.560    -148.193
  H      468.555    -463.286    -144.647
  H      468.538    -463.845    -146.343
  H      467.059    -463.943    -145.342
  H      460.893    -467.118    -143.300
  H      460.954    -468.407    -144.478
  H      460.447    -466.806    -144.960

 3  4  5  6  7  8  9  10  11  12  13  23  28  29  30  31  32 0
 6-311+G(2d,p)
 ****
 33  34 0
 6-311+G(2d,p)
 ****
 1  2  14  15  16  17  18  19  20  21  22  24  25  26  27 0
 3-21G
 ****
 35  36  37  38  39  40  41  42  43  44  45 0
 3-21G
 ****


