%nproc=1
%NoSave
%Mem=1900MB
#P OB98/GEN NMR

erre ene a

0 1
  C      589.278     216.740    -207.950
  O      588.779     217.688    -207.015
  P      589.221     219.219    -207.198
  C      588.016     221.468    -206.720
  O      587.880     220.083    -207.008
  C      586.681     222.061    -206.263
  O      585.761     222.077    -207.359
  C      585.997     221.265    -205.162
  O      586.529     221.557    -203.881
  C      584.567     221.772    -205.284
  O      584.438     223.037    -204.598
  C      584.421     221.978    -206.804
  N      580.149     220.587    -209.152
  C      580.511     221.817    -208.610
  N      579.615     222.815    -208.737
  N      581.641     222.026    -207.997
  C      582.457     220.947    -207.984
  C      582.212     219.688    -208.479
  C      580.938     219.441    -209.112
  O      580.539     218.367    -209.547
  N      583.293     218.856    -208.285
  C      584.200     219.626    -207.712
  N      583.728     220.895    -207.473
  O      589.501     219.323    -208.777
  O      590.403     219.645    -206.392
  H      584.636     222.863    -203.655
  H      590.138     220.051    -208.955
  H      579.278     220.480    -209.627
  H      585.197     219.305    -207.446
  H      583.904     222.915    -207.031
  H      583.832     221.097    -204.846
  H      578.777     222.735    -209.307
  H      586.026     220.183    -205.370
  H      579.871     223.726    -208.376
  H      586.865     223.095    -205.943
  H      588.343     221.994    -207.631
  H      588.785     221.602    -205.949
  P      585.990     220.678    -202.649
  C      587.139     219.198    -200.842
  O      587.297     220.074    -201.946
  O      585.323     219.410    -203.371
  O      585.029     221.398    -201.754
  H      584.628     219.029    -202.804
  H      586.267     218.553    -200.967
  H      587.037     219.779    -199.926
  H      588.033     218.570    -200.761
  H      588.903     215.768    -207.706
  H      590.347     216.730    -207.912
  H      588.959     217.009    -208.935

 3  4  5  6  7  8  9  10  11  12  23  26  30  31  33  0
 6-311+G(2d,p)
 ****
 35  36  37  38 0
 6-311+G(2d,p)
 ****
 1  2  13  14  15  16  17  18  19  20  21  22  24  25  27  28  29 0
 3-21G
 ****
 32  34  39  40  41  42  43  44  45  46  47  48  49 0
 3-21G
 ****


