%nproc=1
%NoSave
%Mem=1900MB
#P OB98/GEN NMR

erre ene a

0 1
  C     -896.840    -519.167     145.670
  O     -895.630    -518.833     146.354
  P     -895.730    -517.832     147.613
  C     -895.460    -519.725     149.396
  O     -896.290    -518.700     148.842
  C     -895.110    -519.374     150.859
  O     -896.320    -519.070     151.577
  C     -894.450    -520.522     151.610
  O     -893.070    -520.635     151.287
  C     -894.700    -520.131     153.054
  O     -893.730    -519.198     153.516
  C     -896.100    -519.465     152.966
  N     -897.180    -520.331     153.464
  C     -897.560    -520.130     154.769
  O     -897.040    -519.311     155.499
  N     -898.560    -520.949     155.226
  C     -899.150    -521.975     154.528
  O     -900.000    -522.706     155.025
  C     -898.680    -522.169     153.145
  C     -897.710    -521.352     152.683
  O     -896.970    -516.887     147.253
  O     -894.490    -517.065     147.878
  H     -894.040    -518.897     154.400
  H     -896.800    -515.985     147.586
  H     -898.870    -520.807     156.172
  H     -899.120    -522.953     152.566
  H     -897.350    -521.469     151.676
  H     -896.090    -518.545     153.553
  H     -894.670    -520.991     153.735
  H     -894.980    -521.470     151.389
  H     -894.460    -518.496     150.842
  H     -894.540    -519.802     148.812
  H     -895.970    -520.686     149.335
  P     -892.360    -522.063     151.545
  C     -892.690    -522.990     149.114
  O     -893.040    -523.059     150.470
  O     -893.020    -522.451     152.958
  O     -890.870    -521.989     151.535
  H     -893.940    -522.129     153.043
  H     -891.630    -522.723     148.984
  H     -893.310    -522.213     148.620
  H     -892.860    -523.957     148.666
  H     -896.621    -519.834     144.863
  H     -897.289    -518.276     145.284
  H     -897.516    -519.641     146.351

 3  4  5  6  7  8  9  10  11  12  13  23  28  29  30  31  32 0
 6-311+G(2d,p)
 ****
 33  34 0
 6-311+G(2d,p)
 ****
 1  2  14  15  16  17  18  19  20  21  22  24  25  26 0
 3-21G
 ****
 27  35  36  37  38  39  40  41  42  43  44  45 0
 3-21G
 ****


