%nproc=1
%NoSave
%Mem=1900MB
#P OB98/GEN NMR

erre ene a

0 1
  C     -314.966    -582.872     211.242
  O     -315.675    -582.509     212.407
  H     -314.882    -583.962     211.205
  H     -313.959    -582.444     211.251
  H     -315.506    -582.535     210.352
  P     -315.801    -580.958     212.787
  C     -313.572    -580.724     214.053
  O     -314.989    -580.755     214.156
  C     -312.927    -580.589     215.436
  O     -313.293    -579.295     215.997
  C     -313.372    -581.674     216.427
  O     -312.251    -582.026     217.244
  C     -314.429    -580.965     217.249
  O     -314.595    -581.565     218.521
  C     -313.909    -579.522     217.275
  N     -314.988    -578.574     217.541
  C     -315.276    -578.311     218.887
  O     -314.627    -578.869     219.778
  N     -316.334    -577.500     219.194
  C     -317.079    -577.023     218.245
  N     -318.130    -576.247     218.621
  C     -316.827    -577.287     216.812
  C     -315.778    -578.057     216.538
  O     -317.184    -580.391     212.790
  O     -314.872    -580.229     211.703
  H     -313.738    -581.522     219.011
  H     -315.400    -579.982     210.917
  H     -317.481    -576.868     216.061
  H     -315.523    -578.319     215.515
  H     -313.136    -579.401     218.044
  H     -315.394    -581.009     216.729
  H     -313.766    -582.570     215.932
  H     -311.841    -580.588     215.319
  H     -318.282    -576.116     219.622
  H     -313.297    -579.860     213.435
  H     -318.804    -575.857     217.977
  H     -313.212    -581.635     213.564
  P     -311.142    -583.057     216.707
  C     -310.677    -583.800     219.110
  O     -310.092    -583.356     217.892
  O     -310.516    -582.679     215.404
  O     -311.940    -584.442     216.569
  H     -311.546    -584.969     215.852
  H     -309.908    -583.972     219.833
  H     -311.214    -584.709     218.937
  H     -311.350    -583.053     219.476

 6  7  8  9  10  11  12  13  14  15  16  26  30  31  32  33  35 0
 6-311+G(2d,p)
 ****
 37  38 0
 6-311+G(2d,p)
 ****
 1  2  3  4  5  17  18  19  20  21  22  23  24  25 0
 3-21G
 ****
 27  28  29  34  36  39  40  41  42  43  44  45  46 0
 3-21G
 ****


