%nproc=1
%NoSave
%Mem=1900MB
#P OB98/GEN NMR

erre ene a

0 1
  C        5.774     -91.556    -288.218
  O        6.675     -92.556    -287.755
  P        7.290     -93.563    -288.845
  C        6.487     -95.581    -287.423
  O        6.464     -94.932    -288.688
  C        5.202     -96.377    -287.205
  O        4.107     -95.484    -286.913
  C        4.752     -97.197    -288.408
  O        5.440     -98.433    -288.503
  C        3.289     -97.426    -288.073
  O        3.173     -98.488    -287.106
  C        2.891     -96.087    -287.433
  N       -1.517     -93.889    -288.807
  C       -1.228     -94.817    -287.875
  N       -0.029     -95.363    -287.572
  C        0.932     -94.883    -288.387
  C        0.775     -93.959    -289.409
  C       -0.516     -93.439    -289.607
  N       -0.805     -92.467    -290.543
  N        1.982     -93.710    -290.024
  C        2.851     -94.459    -289.378
  N        2.264     -95.181    -288.376
  O        8.726     -93.924    -288.233
  O        7.393     -93.010    -290.227
  H        3.484     -99.308    -287.543
  H        9.331     -94.219    -288.943
  H       -2.067     -95.166    -287.279
  H        3.913     -94.510    -289.602
  H        2.207     -96.217    -286.588
  H        2.692     -97.715    -288.943
  H        4.827     -96.612    -289.337
  H        5.350     -97.028    -286.332
  H        6.577     -94.829    -286.632
  H       -1.704     -92.020    -290.499
  H       -0.025     -92.000    -290.995
  H        7.362     -96.246    -287.379
  P        6.451     -98.608    -289.743
  C        5.397    -100.950    -290.163
  O        5.752     -99.689    -290.701
  O        7.679     -99.399    -289.099
  O        6.863     -97.326    -290.382
  H        8.500     -99.220    -289.599
  H        4.675    -101.426    -290.836
  H        4.933    -100.842    -289.177
  H        6.282    -101.587    -290.090
  H        5.445     -90.962    -287.391
  H        4.929     -92.023    -288.679
  H        6.270     -90.932    -288.931

 3  4  5  6  7  8  9  10  11  12  22  25  29  30  31  32 0
 6-311+G(2d,p)
 ****
 33  36  37 0
 6-311+G(2d,p)
 ****
 1  2  13  14  15  16  17  18  19  20  21  23  24  26 0
 3-21G
 ****
 27  28  34  35  38  39  40  41  42  43  44  45  46  47  48 0
 3-21G
 ****


