%nproc=1
%NoSave
%Mem=1900MB
#P OB98/GEN NMR

erre ene a

0 1
  C      -90.104    -242.503    -687.026
  O      -89.976    -242.663    -688.424
  H      -90.279    -241.449    -686.782
  H      -90.951    -243.096    -686.679
  H      -89.193    -242.860    -686.530
  P      -88.851    -241.789    -689.145
  C      -86.673    -242.953    -688.334
  O      -87.594    -242.769    -689.400
  C      -86.263    -244.420    -688.240
  O      -87.391    -245.229    -687.837
  C      -85.772    -245.034    -689.543
  O      -84.432    -244.676    -689.831
  C      -85.894    -246.514    -689.218
  O      -84.768    -246.943    -688.439
  C      -87.183    -246.565    -688.359
  N      -90.806    -250.155    -688.852
  C      -89.758    -250.052    -688.003
  N      -88.832    -249.081    -687.943
  C      -89.069    -248.111    -688.859
  C      -90.098    -248.103    -689.787
  C      -90.991    -249.185    -689.779
  N      -92.058    -249.297    -690.653
  N      -90.030    -246.956    -690.563
  C      -88.974    -246.311    -690.126
  N      -88.356    -246.975    -689.094
  O      -88.323    -240.814    -687.979
  O      -89.303    -241.000    -690.331
  H      -84.022    -247.041    -689.057
  H      -88.108    -239.945    -688.361
  H      -89.658    -250.841    -687.269
  H      -88.632    -245.348    -690.498
  H      -87.049    -247.231    -687.493
  H      -85.938    -247.145    -690.107
  H      -86.442    -244.779    -690.375
  H      -85.494    -244.493    -687.451
  H      -87.146    -242.647    -687.388
  H      -92.769    -249.973    -690.466
  H      -92.185    -248.548    -691.329
  H      -85.795    -242.320    -688.502
  P      -83.763    -245.268    -691.167
  C      -84.269    -243.042    -692.430
  O      -83.286    -243.999    -692.030
  O      -85.032    -245.796    -691.988
  O      -82.756    -246.339    -690.945
  H      -84.774    -246.523    -692.598
  H      -83.800    -242.263    -692.993
  H      -84.734    -242.624    -691.562
  H      -85.009    -243.523    -693.035

 6  7  8  9  10  11  12  13  14  15  25  28  32  33  34  35 0
 6-311+G(2d,p)
 ****
 36  39  40 0
 6-311+G(2d,p)
 ****
 1  2  3  4  5  16  17  18  19  20  21  22  23  24 0
 3-21G
 ****
 26  27  29  30  31  37  38  41  42  43  44  45  46  47  48 0
 3-21G
 ****


