%nproc=1
%NoSave
%Mem=1900MB
#P OB98/GEN NMR

erre ene a

0 1
  C     -334.878     153.675     384.923
  O     -333.551     153.883     384.485
  H     -335.538     153.680     384.051
  H     -335.185     154.480     385.595
  H     -334.973     152.710     385.427
  P     -332.362     153.822     385.559
  C     -331.434     151.588     384.690
  O     -331.177     152.971     384.888
  C     -330.295     150.939     383.903
  O     -330.437     151.291     382.504
  C     -328.902     151.378     384.364
  O     -328.025     150.253     384.287
  C     -328.499     152.409     383.325
  O     -327.083     152.516     383.188
  C     -329.196     151.883     382.072
  N     -327.931     153.650     377.511
  C     -327.549     152.489     378.156
  N     -326.682     151.688     377.503
  N     -327.979     152.146     379.341
  C     -328.853     153.032     379.875
  C     -329.306     154.213     379.340
  C     -328.814     154.592     378.032
  O     -329.105     155.612     377.418
  N     -330.169     154.851     380.199
  C     -330.232     154.055     381.252
  N     -329.443     152.944     381.109
  O     -332.757     153.361     386.926
  O     -331.780     155.311     385.578
  H     -326.761     153.054     383.941
  H     -332.122     155.805     386.346
  H     -327.562     153.871     376.603
  H     -330.821     154.240     382.141
  H     -328.606     151.117     381.556
  H     -328.893     153.395     383.611
  H     -326.321     151.879     376.580
  H     -328.896     151.789     385.377
  H     -326.404     150.819     377.945
  H     -330.405     149.849     383.970
  H     -332.371     151.489     384.132
  H     -331.547     151.096     385.663
  P     -326.906     150.069     385.421
  C     -327.541     147.685     386.156
  O     -326.561     148.507     385.534
  O     -327.180     150.757     386.717
  O     -325.589     150.665     384.719
  H     -325.007     151.037     385.408
  H     -327.198     146.671     386.172
  H     -328.457     147.743     385.606
  H     -327.705     148.022     387.158

 6  7  8  9  10  11  12  13  14  15  26  29  33  34 0
 6-311+G(2d,p)
 ****
 36  38  39  40  41 0
 6-311+G(2d,p)
 ****
 1  2  3  4  5  16  17  18  19  20  21  22  23  24  25 0
 3-21G
 ****
 27  28  30  31  32  35  37  42  43  44  45  46  47 0
 3-21G
 ****
 48  49 0
 3-21G
 ****


