%nproc=1
%NoSave
%Mem=1900MB
#P OB98/GEN NMR

erre ene a

0 1
  C     -251.995     -12.755     546.873
  O     -252.996     -11.800     547.257
  P     -254.329     -11.547     546.407
  C     -255.906     -12.780     548.029
  O     -255.380     -12.715     546.708
  C     -256.829     -13.989     548.214
  O     -256.075     -15.213     548.162
  C     -257.575     -14.028     549.539
  O     -258.655     -13.114     549.550
  C     -257.981     -15.500     549.607
  O     -259.171     -15.740     548.838
  C     -256.765     -16.194     548.963
  N     -255.877     -16.796     549.953
  C     -256.386     -17.883     550.666
  O     -257.549     -18.257     550.492
  N     -255.572     -18.507     551.581
  C     -254.385     -18.039     551.816
  N     -253.626     -18.702     552.728
  C     -253.846     -16.839     551.153
  C     -254.638     -16.274     550.239
  O     -254.083     -11.310     544.949
  O     -255.007     -10.256     547.069
  H     -259.891     -15.246     549.276
  H     -255.493      -9.762     546.385
  H     -252.863     -16.463     551.391
  H     -254.316     -15.395     549.693
  H     -257.096     -16.973     548.268
  H     -258.186     -15.835     550.629
  H     -256.881     -13.806     550.363
  H     -257.540     -14.000     547.376
  H     -254.019     -19.521     553.159
  H     -256.475     -11.861     548.217
  H     -252.688     -18.421     552.979
  H     -255.073     -12.827     548.741
  P     -258.430     -11.622     550.086
  C     -259.153     -10.520     547.887
  O     -258.110     -10.692     548.823
  O     -257.481     -11.485     551.233
  O     -259.903     -11.144     550.508
  H     -259.834     -10.522     551.252
  H     -258.973      -9.596     547.327
  H     -260.127     -10.449     548.384
  H     -259.162     -11.361     547.191
  H     -251.201     -12.748     547.590
  H     -251.607     -12.498     545.909
  H     -252.430     -13.732     546.833

 3  4  5  6  7  8  9  10  11  12  13  23  27  28  29  30  32 0
 6-311+G(2d,p)
 ****
 34  35 0
 6-311+G(2d,p)
 ****
 1  2  14  15  16  17  18  19  20  21  22  24  25  26 0
 3-21G
 ****
 31  33  36  37  38  39  40  41  42  43  44  45  46 0
 3-21G
 ****


