%nproc=1
%NoSave
%Mem=1900MB
#P OB98/GEN NMR

erre ene a

0 1
  C      177.532     751.179    -380.628
  O      176.152     751.221    -380.931
  H      177.719     750.307    -379.990
  H      177.827     752.076    -380.077
  H      178.130     751.081    -381.540
  P      175.633     752.315    -381.982
  C      174.538     750.334    -383.226
  O      174.384     751.668    -382.749
  C      173.223     749.858    -383.853
  O      172.334     749.361    -382.827
  C      172.458     750.947    -384.582
  O      173.033     751.233    -385.836
  C      171.062     750.327    -384.641
  O      170.975     749.387    -385.722
  C      170.978     749.614    -383.280
  N      170.223     750.368    -382.281
  C      168.960     749.883    -381.957
  O      168.467     748.898    -382.494
  N      168.270     750.607    -381.023
  C      168.663     751.796    -380.465
  O      167.956     752.451    -379.699
  C      169.996     752.269    -380.867
  C      170.704     751.545    -381.742
  O      176.676     752.918    -382.861
  O      174.945     753.429    -381.052
  H      171.819     748.899    -385.738
  H      175.533     754.209    -380.993
  H      167.345     750.277    -380.788
  H      170.342     753.202    -380.434
  H      171.689     751.888    -382.045
  H      170.510     748.630    -383.392
  H      170.285     751.075    -384.797
  H      172.407     751.856    -383.965
  H      173.453     749.023    -384.537
  H      174.797     749.693    -382.384
  H      175.343     750.314    -383.963
  P      173.254     752.756    -386.287
  C      175.768     752.804    -385.703
  O      174.790     752.910    -386.749
  O      172.782     753.789    -385.312
  O      172.457     752.869    -387.667
  H      171.757     753.543    -387.585
  H      176.748     752.920    -386.117
  H      175.690     751.844    -385.237
  H      175.596     753.569    -384.975

 6  7  8  9  10  11  12  13  14  15  16  26  31  32  33  34  35 0
 6-311+G(2d,p)
 ****
 36  37 0
 6-311+G(2d,p)
 ****
 1  2  3  4  5  17  18  19  20  21  22  23  24  25 0
 3-21G
 ****
 27  28  29  30  38  39  40  41  42  43  44  45 0
 3-21G
 ****


