%nproc=1
%NoSave
%Mem=1900MB
#P OB98/GEN NMR

erre ene a

0 1
  C      -30.965      33.633      42.880
  O      -29.634      33.813      42.437
  P      -29.288      34.883      41.300
  C      -29.262      33.048      39.514
  O      -28.527      34.105      40.119
  C      -28.404      31.793      39.361
  O      -29.201      30.747      38.742
  C      -27.145      31.978      38.502
  O      -26.139      31.125      39.057
  C      -27.580      31.438      37.150
  O      -26.484      31.066      36.324
  C      -28.464      30.278      37.593
  N      -30.281      26.280      34.978
  C      -29.317      26.376      35.916
  N      -28.873      27.481      36.547
  C      -29.535      28.569      36.123
  C      -30.520      28.632      35.152
  C      -30.909      27.410      34.574
  N      -31.915      27.289      33.641
  N      -30.916      29.941      34.951
  C      -30.185      30.649      35.786
  N      -29.383      29.856      36.559
  O      -28.598      36.118      41.775
  O      -30.708      35.229      40.650
  H      -25.830      31.790      36.334
  H      -30.996      36.118      40.937
  H      -28.843      25.441      36.203
  H      -30.194      31.726      35.871
  H      -27.877      29.405      37.901
  H      -28.160      32.201      36.619
  H      -26.791      33.011      38.449
  H      -28.134      31.440      40.364
  H      -29.587      33.385      38.526
  H      -32.201      26.355      33.394
  H      -32.569      28.060      33.521
  H      -30.152      32.826      40.113
  P      -24.726      31.740      39.501
  C      -24.657      33.442      37.592
  O      -24.039      32.308      38.172
  O      -23.871      30.842      40.331
  O      -25.133      33.072      40.296
  H      -24.379      33.369      40.841
  H      -25.520      33.125      37.001
  H      -23.939      33.941      36.935
  H      -24.985      34.148      38.360
  H      -30.990      32.879      43.638
  H      -31.577      33.331      42.056
  H      -31.335      34.554      43.281

 3  4  5  6  7  8  9  10  11  12  22  25  29  30  31  32 0
 6-311+G(2d,p)
 ****
 33  36  37 0
 6-311+G(2d,p)
 ****
 1  2  13  14  15  16  17  18  19  20  21  23  24  26 0
 3-21G
 ****
 27  28  34  35  38  39  40  41  42  43  44  45  46  47  48 0
 3-21G
 ****


