%nproc=1
%NoSave
%Mem=1900MB
#P OB98/GEN NMR

erre ene a

0 1
  C     -597.715     -55.775     116.110
  O     -596.566     -54.939     116.083
  H     -598.038     -55.891     117.149
  H     -597.488     -56.764     115.700
  H     -598.525     -55.314     115.541
  P     -595.749     -54.827     114.703
  C     -593.673     -55.338     116.159
  O     -594.380     -55.630     114.953
  C     -593.029     -56.607     116.735
  O     -594.041     -57.575     117.063
  C     -592.099     -57.320     115.764
  O     -590.908     -56.612     115.479
  C     -592.021     -58.723     116.346
  O     -591.026     -58.858     117.357
  C     -593.433     -58.881     116.972
  N     -594.262     -59.816     116.220
  C     -594.096     -61.159     116.537
  O     -593.287     -61.570     117.374
  N     -594.859     -62.047     115.819
  C     -595.718     -61.714     114.804
  O     -596.349     -62.560     114.173
  C     -595.835     -60.283     114.502
  C     -595.109     -59.410     115.210
  O     -595.551     -53.436     114.179
  O     -596.554     -55.779     113.704
  H     -590.183     -59.058     116.893
  H     -596.318     -55.597     112.763
  H     -594.762     -63.019     116.042
  H     -596.501     -59.984     113.698
  H     -595.173     -58.340     115.005
  H     -593.351     -59.257     117.998
  H     -591.806     -59.463     115.577
  H     -592.616     -57.414     114.801
  H     -592.500     -56.334     117.659
  H     -594.402     -54.952     116.877
  H     -592.915     -54.577     115.969
  P     -589.892     -57.024     114.326
  C     -587.585     -56.238     115.238
  O     -588.456     -57.337     114.987
  O     -589.926     -56.198     113.071
  O     -590.417     -58.498     113.942
  H     -590.284     -58.627     112.981
  H     -586.676     -56.596     115.675
  H     -588.059     -55.554     115.910
  H     -587.366     -55.739     114.317

 6  7  8  9  10  11  12  13  14  15  16  26  31  32  33  34  35 0
 6-311+G(2d,p)
 ****
 36  37 0
 6-311+G(2d,p)
 ****
 1  2  3  4  5  17  18  19  20  21  22  23  24  25 0
 3-21G
 ****
 27  28  29  30  38  39  40  41  42  43  44  45 0
 3-21G
 ****


