%nproc=1
%NoSave
%Mem=1900MB
#P OB98/GEN NMR

erre ene a

0 1
  C     -296.678    -349.924    -116.750
  O     -296.890    -348.531    -116.859
  H     -295.624    -350.099    -116.522
  H     -296.920    -350.416    -117.694
  H     -297.289    -350.339    -115.946
  P     -298.387    -348.040    -117.169
  C     -298.663    -348.325    -119.743
  O     -298.846    -348.895    -118.454
  C     -298.782    -349.402    -120.825
  O     -300.130    -349.936    -120.820
  C     -298.493    -348.879    -122.234
  O     -297.687    -349.827    -122.934
  C     -299.864    -348.759    -122.875
  O     -299.809    -348.866    -124.296
  C     -300.647    -349.867    -122.160
  N     -302.084    -349.600    -122.161
  C     -302.720    -349.567    -123.409
  O     -302.065    -349.743    -124.441
  N     -304.058    -349.283    -123.465
  C     -304.700    -348.996    -122.375
  N     -306.021    -348.701    -122.498
  C     -304.065    -348.972    -121.043
  C     -302.769    -349.288    -121.010
  O     -298.167    -346.570    -117.755
  O     -299.329    -348.101    -116.012
  H     -300.644    -348.497    -124.663
  H     -299.016    -346.065    -117.792
  H     -304.637    -348.709    -120.167
  H     -302.219    -349.292    -120.074
  H     -300.469    -350.838    -122.642
  H     -300.294    -347.779    -122.631
  H     -297.982    -347.916    -122.234
  H     -298.116    -350.231    -120.565
  H     -306.422    -348.715    -123.428
  H     -297.668    -347.868    -119.789
  H     -306.613    -348.432    -121.724
  H     -299.421    -347.554    -119.906
  P     -296.099    -349.677    -122.744
  C     -295.527    -348.125    -124.738
  O     -295.674    -348.243    -123.333
  O     -295.495    -350.723    -123.796
  O     -295.638    -349.945    -121.348
  H     -295.240    -351.549    -123.350
  H     -295.244    -347.123    -124.984
  H     -296.456    -348.360    -125.215
  H     -294.771    -348.803    -125.076

 6  7  8  9  10  11  12  13  14  15  16  26  30  31  32  33  35 0
 6-311+G(2d,p)
 ****
 37  38 0
 6-311+G(2d,p)
 ****
 1  2  3  4  5  17  18  19  20  21  22  23  24  25 0
 3-21G
 ****
 27  28  29  34  36  39  40  41  42  43  44  45  46 0
 3-21G
 ****


