%nproc=1
%NoSave
%Mem=1900MB
#P OB98/GEN NMR

erre ene a

0 1
  C      -79.849     715.312     166.474
  O      -78.691     715.503     165.684
  P      -77.623     714.324     165.501
  C      -75.496     713.484     166.656
  O      -76.605     714.356     166.740
  C      -74.949     713.150     168.047
  O      -74.277     714.330     168.594
  C      -76.013     712.702     169.064
  O      -75.419     711.674     169.866
  C      -76.243     713.964     169.886
  O      -76.797     713.671     171.162
  C      -74.835     714.563     169.901
  N      -74.837     715.974     170.233
  C      -74.508     716.317     171.554
  O      -74.365     715.436     172.399
  N      -74.368     717.653     171.872
  C      -74.711     718.549     170.995
  N      -74.497     719.856     171.332
  C      -75.300     718.224     169.691
  C      -75.296     716.925     169.348
  O      -76.959     714.277     164.157
  O      -78.467     712.977     165.760
  H      -78.351     712.375     164.995
  H      -76.310     712.926     171.558
  H      -75.688     719.008     169.055
  H      -75.686     716.589     168.398
  H      -74.197     714.021     170.621
  H      -76.938     714.628     169.366
  H      -76.917     712.318     168.575
  H      -74.189     712.375     167.933
  H      -74.054     720.041     172.222
  H      -74.722     713.976     166.074
  H      -74.436     720.591     170.629
  H      -75.786     712.561     166.131
  P      -76.376     710.479     170.374
  C      -77.993     710.162     172.389
  O      -77.311     711.062     171.554
  O      -75.333     709.578     171.208
  O      -77.038     709.650     169.325
  H      -75.666     708.654     171.234
  H      -78.634     710.720     173.063
  H      -77.283     709.576     172.978
  H      -78.628     709.488     171.789
  H      -80.433     716.208     166.473
  H      -79.561     715.075     167.477
  H      -80.428     714.508     166.070

 3  4  5  6  7  8  9  10  11  12  13  24  27  28  29  30  32 0
 6-311+G(2d,p)
 ****
 34  35 0
 6-311+G(2d,p)
 ****
 1  2  14  15  16  17  18  19  20  21  22  23  25  26 0
 3-21G
 ****
 31  33  36  37  38  39  40  41  42  43  44  45  46 0
 3-21G
 ****


