%nproc=1
%NoSave
%Mem=1900MB
#P OB98/GEN NMR

erre ene a

0 1
  C      -20.696      -9.468     289.516
  O      -20.742     -10.452     288.502
  H      -19.736      -9.523     290.034
  H      -20.789      -8.482     289.054
  H      -21.514      -9.604     290.228
  P      -20.923     -11.977     288.967
  C      -21.629     -12.625     286.552
  O      -20.753     -12.877     287.642
  C      -20.925     -12.910     285.226
  O      -19.900     -11.897     285.019
  C      -20.245     -14.289     285.155
  O      -20.422     -14.813     283.835
  C      -18.774     -13.962     285.361
  O      -17.908     -14.937     284.787
  C      -18.679     -12.589     284.698
  N      -13.599     -12.407     284.500
  C      -14.512     -13.035     283.730
  N      -15.857     -12.988     283.817
  C      -16.235     -12.138     284.789
  C      -15.427     -11.420     285.653
  C      -14.040     -11.594     285.491
  N      -13.104     -11.011     286.319
  N      -16.195     -10.700     286.549
  C      -17.442     -10.997     286.243
  N      -17.519     -11.864     285.188
  O      -22.494     -12.058     289.275
  O      -20.101     -12.397     290.141
  H      -17.006     -14.807     285.144
  H      -22.659     -11.791     290.197
  H      -14.105     -13.670     282.941
  H      -18.319     -10.639     286.771
  H      -18.592     -12.651     283.606
  H      -18.560     -13.898     286.434
  H      -20.619     -15.006     285.894
  H      -21.654     -12.799     284.414
  H      -21.931     -11.571     286.574
  H      -12.140     -11.278     286.197
  H      -13.418     -10.492     287.124
  H      -22.519     -13.252     286.651
  P      -21.411     -16.067     283.666
  C      -22.949     -15.577     281.619
  O      -21.779     -16.221     282.114
  O      -22.778     -15.541     284.319
  O      -20.925     -17.315     284.328
  H      -23.256     -16.285     284.739
  H      -23.051     -15.777     280.573
  H      -22.868     -14.521     281.774
  H      -23.807     -15.949     282.138

 6  7  8  9  10  11  12  13  14  15  25  28  32  33  34  35 0
 6-311+G(2d,p)
 ****
 36  39  40 0
 6-311+G(2d,p)
 ****
 1  2  3  4  5  16  17  18  19  20  21  22  23  24 0
 3-21G
 ****
 26  27  29  30  31  37  38  41  42  43  44  45  46  47 0
 3-21G
 ****
 48 0
 3-21G
 ****


