%nproc=1
%NoSave
%Mem=1900MB
#P OB98/GEN NMR

erre ene a

0 1
  C     -103.837     172.291     124.772
  O     -102.739     172.443     125.655
  P     -103.036     172.388     127.232
  C     -102.072     174.802     127.320
  O     -103.099     173.910     127.734
  C     -101.637     175.682     128.488
  O     -102.779     176.286     129.127
  C     -100.908     174.934     129.595
  O      -99.539     174.719     129.293
  C     -101.049     175.911     130.750
  O     -100.070     176.960     130.630
  C     -102.461     176.469     130.528
  N     -104.531     176.231     135.137
  C     -103.663     177.164     134.607
  N     -103.241     178.137     135.443
  N     -103.246     177.147     133.368
  C     -103.745     176.110     132.650
  C     -104.613     175.126     133.065
  C     -105.056     175.151     134.441
  O     -105.782     174.325     134.983
  N     -104.898     174.253     132.050
  C     -104.208     174.704     131.022
  N     -103.458     175.804     131.348
  O     -101.659     171.854     127.849
  O     -104.195     171.532     127.617
  H     -100.273     177.437     129.801
  H     -101.805     171.525     128.756
  H     -104.819     176.284     136.101
  H     -104.207     174.260     130.035
  H     -102.513     177.542     130.737
  H     -100.894     175.442     131.726
  H     -103.475     178.169     136.425
  H     -101.420     173.996     129.847
  H     -102.555     178.798     135.100
  H     -101.007     176.488     128.089
  H     -102.447     175.429     126.508
  H     -101.222     174.224     126.944
  P      -98.733     173.722     130.260
  C      -97.785     175.271     132.117
  O      -98.811     174.386     131.715
  O      -97.212     173.943     129.817
  O      -99.152     172.294     130.162
  H      -96.683     173.146     130.009
  H      -98.125     175.825     132.997
  H      -97.550     175.987     131.324
  H      -96.888     174.706     132.380
  H     -103.492     172.349     123.761
  H     -104.549     173.069     124.951
  H     -104.299     171.340     124.938

 3  4  5  6  7  8  9  10  11  12  23  26  30  31 0
 6-311+G(2d,p)
 ****
 33  35  36  37  38 0
 6-311+G(2d,p)
 ****
 1  2  13  14  15  16  17  18  19  20  21  22  24  25 0
 3-21G
 ****
 27  28  29  32  34  39  40  41  42  43  44  45  46  47  48  49 0
 3-21G
 ****


