%nproc=1
%NoSave
%Mem=1900MB
#P OB98/GEN NMR

erre ene a

0 1
  C     -308.359    -113.292      67.684
  O     -307.206    -114.099      67.532
  P     -305.778    -113.412      67.770
  C     -304.630    -115.416      68.982
  O     -304.690    -114.585      67.831
  C     -304.342    -116.859      68.561
  O     -305.448    -117.393      67.802
  C     -303.121    -117.000      67.662
  O     -301.918    -116.950      68.410
  C     -303.374    -118.352      67.010
  O     -302.941    -119.424      67.860
  C     -304.911    -118.354      66.868
  N     -305.350    -118.090      65.502
  C     -305.304    -119.169      64.628
  O     -304.898    -120.284      64.963
  N     -305.701    -118.919      63.344
  C     -306.077    -117.707      62.842
  O     -306.371    -117.532      61.665
  C     -306.079    -116.593      63.807
  C     -305.714    -116.830      65.069
  O     -305.853    -112.884      69.280
  O     -305.451    -112.313      66.816
  H     -302.960    -120.237      67.316
  H     -305.365    -112.043      69.363
  H     -305.699    -119.693      62.700
  H     -306.373    -115.617      63.444
  H     -305.696    -116.021      65.791
  H     -305.314    -119.328      67.175
  H     -302.839    -118.459      66.062
  H     -303.134    -116.220      66.889
  H     -304.224    -117.466      69.468
  H     -305.587    -115.370      69.510
  H     -303.847    -115.046      69.651
  P     -300.612    -116.401      67.649
  C     -299.174    -115.828      69.754
  O     -299.397    -116.684      68.656
  O     -300.862    -114.822      67.726
  O     -300.472    -116.947      66.268
  H     -301.332    -114.564      68.536
  H     -300.116    -115.460      70.171
  H     -298.562    -114.982      69.436
  H     -298.639    -116.383      70.530
  H     -309.233    -113.880      67.496
  H     -308.320    -112.479      66.989
  H     -308.396    -112.907      68.682

 3  4  5  6  7  8  9  10  11  12  13  23  28  29  30  31  32 0
 6-311+G(2d,p)
 ****
 33  34 0
 6-311+G(2d,p)
 ****
 1  2  14  15  16  17  18  19  20  21  22  24  25  26 0
 3-21G
 ****
 27  35  36  37  38  39  40  41  42  43  44  45 0
 3-21G
 ****


