%nproc=1
%NoSave
%Mem=1900MB
#P OB98/GEN NMR

erre ene a

0 1
  C      -90.297     -34.026    -114.913
  O      -91.194     -34.808    -115.672
  H      -90.096     -34.540    -113.970
  H      -90.748     -33.054    -114.695
  H      -89.351     -33.881    -115.441
  P      -91.381     -34.479    -117.226
  C      -91.951     -36.930    -117.801
  O      -92.383     -35.577    -117.827
  C      -93.062     -37.874    -118.272
  O      -94.100     -37.941    -117.265
  C      -93.715     -37.337    -119.550
  O      -94.239     -38.382    -120.365
  C      -94.865     -36.500    -119.014
  O      -95.900     -36.294    -119.973
  C      -95.288     -37.328    -117.801
  N      -99.690     -35.553    -115.950
  C      -99.448     -36.223    -117.131
  N     -100.514     -36.431    -117.938
  N      -98.264     -36.640    -117.498
  C      -97.279     -36.297    -116.631
  C      -97.395     -35.612    -115.443
  C      -98.714     -35.193    -115.029
  O      -98.986     -34.578    -114.001
  N      -96.169     -35.435    -114.847
  C      -95.316     -36.004    -115.673
  N      -95.944     -36.556    -116.766
  O      -89.977     -34.900    -117.876
  O      -91.730     -33.058    -117.552
  H      -96.594     -35.760    -119.543
  H      -89.822     -34.407    -118.700
  H     -100.624     -35.268    -115.708
  H      -94.243     -36.053    -115.529
  H      -95.976     -38.128    -118.102
  H      -94.474     -35.514    -118.744
  H     -101.401     -35.978    -117.780
  H      -93.024     -36.738    -120.143
  H     -100.312     -36.650    -118.915
  H      -92.669     -38.892    -118.393
  H      -91.675     -37.162    -116.766
  H      -91.055     -37.052    -118.416
  P      -93.324     -38.914    -121.570
  C      -93.319     -41.477    -121.005
  O      -93.737     -40.433    -121.866
  O      -91.868     -39.022    -120.911
  O      -93.334     -38.027    -122.770
  H      -91.303     -38.290    -121.226
  H      -93.693     -42.411    -121.369
  H      -93.698     -41.301    -120.020
  H      -92.250     -41.508    -120.975

 6  7  8  9  10  11  12  13  14  15  26  29  33  34 0
 6-311+G(2d,p)
 ****
 36  38  39  40  41 0
 6-311+G(2d,p)
 ****
 1  2  3  4  5  16  17  18  19  20  21  22  23  24  25 0
 3-21G
 ****
 27  28  30  31  32  35  37  42  43  44  45  46  47 0
 3-21G
 ****
 48  49 0
 3-21G
 ****


