%nproc=1
%NoSave
%Mem=1900MB
#P OB98/GEN NMR

erre ene a

0 1
  C      845.091    -158.368    1043.582
  O      846.269    -158.019    1044.293
  H      844.498    -157.452    1043.426
  H      844.491    -159.068    1044.171
  H      845.341    -158.797    1042.618
  P      847.264    -159.230    1044.655
  C      848.951    -159.305    1042.675
  O      848.685    -158.847    1044.000
  C      849.804    -158.282    1041.926
  O      849.049    -157.065    1041.679
  C      851.070    -157.855    1042.662
  O      852.117    -158.792    1042.450
  C      851.370    -156.501    1042.010
  O      852.012    -156.666    1040.734
  C      849.944    -155.934    1041.833
  N      850.853    -151.657    1044.356
  C      851.466    -152.169    1043.249
  N      852.509    -151.473    1042.747
  N      851.108    -153.283    1042.651
  C      850.056    -153.883    1043.271
  C      849.341    -153.469    1044.381
  C      849.755    -152.217    1045.003
  O      849.208    -151.678    1045.941
  N      848.349    -154.350    1044.705
  C      848.465    -155.321    1043.803
  N      849.505    -155.097    1042.936
  O      846.744    -160.426    1043.714
  O      847.296    -159.622    1046.087
  H      852.849    -157.124    1040.863
  H      846.915    -161.278    1044.165
  H      851.171    -150.781    1044.747
  H      847.829    -156.198    1043.758
  H      849.865    -155.334    1040.921
  H      852.013    -155.899    1042.633
  H      853.039    -150.829    1043.328
  H      850.874    -157.706    1043.731
  H      852.991    -151.862    1041.938
  H      850.049    -158.707    1040.936
  H      848.001    -159.426    1042.147
  H      849.462    -160.264    1042.723
  P      853.013    -159.207    1043.726
  C      851.362    -161.126    1044.326
  O      852.716    -160.748    1044.032
  O      852.297    -158.445    1044.941
  O      854.456    -158.841    1043.622
  H      852.897    -158.397    1045.709
  H      851.317    -162.179    1044.508
  H      850.735    -160.881    1043.495
  H      851.025    -160.599    1045.194

 6  7  8  9  10  11  12  13  14  15  26  29  33  34 0
 6-311+G(2d,p)
 ****
 36  38  39  40  41 0
 6-311+G(2d,p)
 ****
 1  2  3  4  5  16  17  18  19  20  21  22  23  24  25 0
 3-21G
 ****
 27  28  30  31  32  35  37  42  43  44  45  46  47 0
 3-21G
 ****
 48  49 0
 3-21G
 ****


