%nproc=1
%NoSave
%Mem=1900MB
#P OB98/GEN NMR

erre ene a

0 1
  C      206.237     -26.883      68.802
  O      207.620     -27.057      68.499
  P      208.016     -27.929      67.213
  C      208.522     -25.722      65.977
  O      208.963     -27.044      66.267
  C      209.465     -25.046      64.966
  O      208.903     -23.761      64.586
  C      210.871     -24.743      65.497
  O      211.875     -25.745      65.359
  C      211.286     -23.584      64.594
  O      211.794     -24.095      63.347
  C      209.981     -22.833      64.346
  N      210.736     -17.784      64.674
  C      210.989     -18.672      63.688
  N      210.758     -20.001      63.682
  C      210.194     -20.394      64.834
  C      209.877     -19.602      65.925
  C      210.173     -18.233      65.820
  N      209.927     -17.330      66.827
  N      209.319     -20.361      66.933
  C      209.319     -21.593      66.463
  N      209.825     -21.663      65.194
  O      206.891     -28.626      66.525
  O      209.051     -28.992      67.825
  H      211.599     -23.419      62.671
  H      208.915     -29.855      67.386
  H      211.437     -18.263      62.788
  H      208.964     -22.459      67.004
  H      209.889     -22.488      63.310
  H      212.086     -22.980      65.033
  H      210.830     -24.405      66.539
  H      209.531     -25.669      64.065
  H      208.491     -25.136      66.898
  H      210.212     -16.373      66.687
  H      209.563     -17.658      67.710
  H      207.498     -25.790      65.611
  P      212.341     -26.637      66.605
  C      210.756     -28.670      66.161
  O      212.069     -28.157      66.173
  O      211.749     -26.250      67.917
  O      213.934     -26.523      66.537
  H      214.336     -26.965      65.771
  H      210.760     -29.632      65.640
  H      210.077     -27.991      65.641
  H      210.412     -28.827      67.187
  H      206.137     -26.282      69.682
  H      205.786     -27.839      68.970
  H      205.750     -26.398      67.982

 3  4  5  6  7  8  9  10  11  12  22  25  29  30  31  32 0
 6-311+G(2d,p)
 ****
 33  36  37 0
 6-311+G(2d,p)
 ****
 1  2  13  14  15  16  17  18  19  20  21  23  24  26 0
 3-21G
 ****
 27  28  34  35  38  39  40  41  42  43  44  45  46  47  48 0
 3-21G
 ****


