%nproc=1
%NoSave
%Mem=1900MB
#P OB98/GEN NMR

erre ene a

0 1
  C     -220.533    -234.272     -17.027
  O     -219.783    -233.095     -16.734
  P     -220.070    -232.358     -15.341
  C     -222.319    -231.163     -15.961
  O     -221.656    -232.158     -15.209
  C     -223.818    -231.111     -15.612
  O     -224.449    -230.094     -16.435
  C     -224.595    -232.395     -15.885
  O     -225.819    -232.358     -15.142
  C     -224.898    -232.263     -17.362
  O     -225.960    -233.128     -17.759
  C     -225.177    -230.751     -17.509
  N     -224.760    -230.196     -18.814
  C     -225.738    -229.965     -19.779
  O     -226.936    -230.194     -19.612
  N     -225.297    -229.484     -20.983
  C     -224.008    -229.180     -21.297
  O     -223.656    -228.837     -22.421
  C     -223.038    -229.309     -20.205
  C     -223.447    -229.809     -19.037
  O     -219.503    -230.882     -15.574
  O     -219.434    -233.026     -14.168
  H     -226.772    -232.796     -17.312
  H     -218.659    -230.764     -15.098
  H     -225.986    -229.376     -21.713
  H     -222.014    -229.012     -20.397
  H     -222.738    -229.934     -18.222
  H     -226.247    -230.530     -17.388
  H     -224.018    -232.539     -17.946
  H     -224.049    -233.315     -15.659
  H     -223.933    -230.805     -14.563
  H     -222.186    -231.351     -17.030
  H     -221.868    -230.184     -15.756
  P     -225.926    -233.271     -13.825
  C     -227.578    -235.001     -14.769
  O     -226.255    -234.757     -14.332
  O     -226.801    -232.747     -12.740
  O     -224.398    -233.394     -13.352
  H     -224.365    -233.667     -12.418
  H     -227.562    -235.786     -15.528
  H     -228.030    -234.098     -15.201
  H     -228.180    -235.334     -13.921
  H     -220.238    -234.654     -17.982
  H     -221.576    -234.035     -17.044
  H     -220.347    -235.010     -16.275

 3  4  5  6  7  8  9  10  11  12  13  23  28  29  30  31  32 0
 6-311+G(2d,p)
 ****
 33  34 0
 6-311+G(2d,p)
 ****
 1  2  14  15  16  17  18  19  20  21  22  24  25  26  27 0
 3-21G
 ****
 35  36  37  38  39  40  41  42  43  44  45 0
 3-21G
 ****


