%nproc=1
%NoSave
%Mem=1900MB
#P OB98/GEN NMR

erre ene a

0 1
  C        5.035     -21.879     100.946
  O        6.170     -21.138     101.353
  H        5.187     -22.929     101.209
  H        4.910     -21.801      99.863
  H        4.138     -21.513     101.452
  P        6.047     -19.544     101.268
  C        5.958     -17.799      99.312
  O        5.879     -19.159      99.715
  C        5.446     -17.645      97.884
  O        6.302     -18.340      96.955
  C        4.078     -18.260      97.640
  O        3.034     -17.513      98.225
  C        4.039     -18.268      96.118
  O        3.607     -17.007      95.592
  C        5.519     -18.535      95.753
  N        5.703     -19.856      95.182
  C        5.900     -19.887      93.795
  O        5.928     -18.838      93.151
  N        6.021     -21.103      93.176
  C        5.925     -22.193      93.871
  N        6.021     -23.366      93.191
  C        5.716     -22.205      95.333
  C        5.614     -21.012      95.919
  O        7.535     -19.064     101.603
  O        5.001     -18.950     102.149
  H        3.556     -17.118      94.621
  H        8.220     -19.527     101.093
  H        5.657     -23.140      95.869
  H        5.460     -20.928      96.989
  H        5.875     -17.795      95.025
  H        3.349     -19.025      95.737
  H        4.065     -19.301      97.987
  H        5.453     -16.576      97.632
  H        6.107     -23.313      92.183
  H        6.987     -17.434      99.389
  H        5.883     -24.273      93.613
  H        5.345     -17.211     100.003
  P        1.790     -18.232      98.930
  C       -0.324     -19.472      98.137
  O        0.941     -18.937      97.761
  O        0.983     -17.367      99.838
  O        2.463     -19.490      99.657
  H        2.924     -20.107      99.063
  H       -0.793     -19.912      97.282
  H       -0.943     -18.688      98.519
  H       -0.186     -20.218      98.892

 6  7  8  9  10  11  12  13  14  15  16  26  30  31  32  33  35 0
 6-311+G(2d,p)
 ****
 37  38 0
 6-311+G(2d,p)
 ****
 1  2  3  4  5  17  18  19  20  21  22  23  24  25 0
 3-21G
 ****
 27  28  29  34  36  39  40  41  42  43  44  45  46 0
 3-21G
 ****


