%nproc=1
%NoSave
%Mem=1900MB
#P OB98/GEN NMR

erre ene a

0 1
  C     -477.804      66.066      52.569
  O     -478.641      65.172      53.273
  H     -478.169      66.150      51.538
  H     -476.775      65.694      52.550
  H     -477.835      67.056      53.038
  P     -478.253      64.882      54.806
  C     -477.224      62.688      53.910
  O     -477.030      63.845      54.714
  C     -475.978      61.802      53.920
  O     -475.623      61.529      55.304
  C     -476.186      60.452      53.213
  O     -474.986      60.105      52.511
  C     -476.405      59.477      54.363
  O     -476.047      58.146      54.018
  C     -475.539      60.106      55.462
  N     -475.399      56.402      58.981
  C     -474.732      56.572      57.818
  N     -474.823      57.594      56.942
  C     -475.666      58.536      57.403
  C     -476.422      58.500      58.564
  C     -476.265      57.368      59.376
  N     -476.957      57.182      60.547
  N     -477.207      59.646      58.660
  C     -476.920      60.346      57.583
  N     -476.008      59.718      56.784
  O     -479.378      64.464      55.686
  O     -477.528      66.243      55.215
  H     -476.196      57.570      54.796
  H     -476.920      66.551      54.520
  H     -474.047      55.768      57.547
  H     -477.354      61.312      57.339
  H     -474.485      59.801      55.388
  H     -477.465      59.491      54.648
  H     -477.028      60.469      52.525
  H     -475.138      62.361      53.479
  H     -477.453      62.990      52.879
  H     -476.770      56.325      61.081
  H     -477.601      57.889      60.875
  H     -478.085      62.147      54.300
  P     -474.890      60.448      50.946
  C     -475.602      58.170      49.930
  O     -475.959      59.536      50.165
  O     -473.518      60.474      50.366
  O     -475.573      61.903      50.863
  H     -475.093      62.449      50.212
  H     -476.395      57.679      49.406
  H     -475.436      57.679      50.866
  H     -474.708      58.131      49.343

 6  7  8  9  10  11  12  13  14  15  25  28  32  33  34  35 0
 6-311+G(2d,p)
 ****
 36  39  40 0
 6-311+G(2d,p)
 ****
 1  2  3  4  5  16  17  18  19  20  21  22  23  24 0
 3-21G
 ****
 26  27  29  30  31  37  38  41  42  43  44  45  46  47 0
 3-21G
 ****
 48 0
 3-21G
 ****


