%nproc=1
%NoSave
%Mem=1900MB
#P OB98/GEN NMR

erre ene a

0 1
  C      871.353     351.604    -336.876
  O      871.121     352.949    -337.237
  H      871.847     351.585    -335.902
  H      872.004     351.112    -337.606
  H      870.405     351.063    -336.796
  P      870.505     353.253    -338.689
  C      869.836     355.512    -337.611
  O      870.389     354.855    -338.742
  C      869.825     357.025    -337.827
  O      871.167     357.528    -338.003
  C      869.073     357.487    -339.068
  O      867.661     357.415    -338.937
  C      869.579     358.921    -339.165
  O      868.918     359.726    -338.174
  C      871.076     358.728    -338.814
  N      871.930     358.609    -339.999
  C      872.420     359.804    -340.544
  O      872.138     360.889    -340.038
  N      873.191     359.742    -341.681
  C      873.438     358.593    -342.232
  N      874.164     358.597    -343.386
  C      872.953     357.313    -341.686
  C      872.214     357.389    -340.583
  O      869.259     352.506    -339.051
  O      871.719     352.984    -339.701
  H      868.009     359.887    -338.493
  H      871.386     353.146    -340.617
  H      873.182     356.384    -342.186
  H      871.807     356.493    -340.128
  H      871.440     359.564    -338.203
  H      869.397     359.380    -340.142
  H      869.412     356.941    -339.959
  H      869.421     357.485    -336.917
  H      874.441     359.496    -343.755
  H      870.435     355.243    -336.733
  H      874.167     357.796    -344.009
  H      868.804     355.184    -337.454
  P      866.771     357.578    -340.266
  C      865.154     355.763    -339.328
  O      865.300     357.054    -339.899
  O      867.356     356.442    -341.222
  O      866.793     358.936    -340.895
  H      868.043     356.796    -341.816
  H      864.118     355.569    -339.145
  H      865.694     355.718    -338.405
  H      865.541     355.029    -340.003

 6  7  8  9  10  11  12  13  14  15  16  26  30  31  32  33  35 0
 6-311+G(2d,p)
 ****
 37  38 0
 6-311+G(2d,p)
 ****
 1  2  3  4  5  17  18  19  20  21  22  23  24  25 0
 3-21G
 ****
 27  28  29  34  36  39  40  41  42  43  44  45  46 0
 3-21G
 ****


