%nproc=1
%NoSave
%Mem=1900MB
#P OB98/GEN NMR

erre ene a

0 1
  C     1509.769     -40.745     595.743
  O     1509.575     -40.807     594.344
  H     1510.841     -40.812     595.948
  H     1509.262     -41.582     596.223
  H     1509.390     -39.799     596.149
  P     1508.092     -40.511     593.809
  C     1508.063     -42.002     591.679
  O     1508.134     -40.683     592.207
  C     1509.012     -42.139     590.476
  O     1508.684     -41.153     589.468
  C     1510.486     -41.938     590.810
  O     1511.068     -43.117     591.335
  C     1511.036     -41.609     589.437
  O     1511.162     -42.808     588.674
  C     1509.939     -40.706     588.855
  N     1512.194     -36.465     587.265
  C     1512.257     -37.747     586.762
  N     1513.052     -37.929     585.677
  N     1511.639     -38.782     587.270
  C     1510.878     -38.445     588.349
  C     1510.726     -37.207     588.948
  C     1511.441     -36.092     588.377
  O     1511.404     -34.930     588.753
  N     1509.877     -37.267     590.023
  C     1509.538     -38.536     590.100
  N     1510.109     -39.283     589.100
  O     1507.929     -38.923     594.009
  O     1507.004     -41.262     594.512
  H     1510.302     -43.286     588.753
  H     1506.998     -38.733     594.260
  H     1512.732     -35.713     586.848
  H     1508.871     -38.959     590.839
  H     1509.807     -40.836     587.770
  H     1512.023     -41.143     589.475
  H     1513.609     -37.200     585.267
  H     1510.633     -41.071     591.486
  H     1513.089     -38.862     585.263
  H     1508.841     -43.130     590.043
  H     1507.040     -42.205     591.355
  H     1508.353     -42.712     592.458
  P     1511.239     -43.226     592.938
  C     1513.597     -44.238     592.468
  O     1512.350     -44.337     593.188
  O     1509.873     -43.942     593.389
  O     1511.441     -41.918     593.641
  H     1509.682     -43.750     594.323
  H     1514.234     -45.053     592.744
  H     1514.076     -43.313     592.711
  H     1513.405     -44.275     591.416

 6  7  8  9  10  11  12  13  14  15  26  29  33  34 0
 6-311+G(2d,p)
 ****
 36  38  39  40  41 0
 6-311+G(2d,p)
 ****
 1  2  3  4  5  16  17  18  19  20  21  22  23  24  25 0
 3-21G
 ****
 27  28  30  31  32  35  37  42  43  44  45  46  47 0
 3-21G
 ****
 48  49 0
 3-21G
 ****


