%nproc=1
%NoSave
%Mem=1900MB
#P OB98/GEN NMR

erre ene a

0 1
  C     -213.146     241.732     -55.600
  O     -212.660     243.042     -55.367
  H     -212.335     241.125     -56.010
  H     -213.969     241.757     -56.318
  H     -213.478     241.283     -54.657
  P     -213.695     244.087     -54.734
  C     -212.397     245.820     -56.153
  O     -212.966     245.508     -54.889
  C     -211.489     247.044     -56.043
  O     -212.236     248.183     -55.581
  C     -210.327     246.883     -55.067
  O     -209.259     246.165     -55.662
  C     -209.962     248.337     -54.818
  O     -209.166     248.833     -55.912
  C     -211.339     249.033     -54.816
  N     -212.412     252.544     -51.224
  C     -211.681     252.616     -52.357
  N     -211.401     251.632     -53.243
  C     -211.972     250.474     -52.864
  C     -212.745     250.252     -51.731
  C     -212.975     251.357     -50.895
  N     -213.731     251.289     -49.742
  N     -213.153     248.936     -51.670
  C     -212.681     248.389     -52.769
  N     -211.923     249.266     -53.507
  O     -214.211     243.749     -53.375
  O     -214.810     244.148     -55.884
  H     -208.374     248.266     -55.982
  H     -214.393     244.116     -56.764
  H     -211.264     253.595     -52.586
  H     -212.864     247.366     -53.089
  H     -211.301     250.008     -55.316
  H     -209.372     248.469     -53.909
  H     -210.660     246.430     -54.124
  H     -211.120     247.284     -57.049
  H     -213.176     246.002     -56.896
  H     -213.701     252.079     -49.115
  H     -214.042     250.374     -49.434
  H     -211.814     244.946     -56.472
  P     -208.152     245.450     -54.755
  C     -206.287     246.017     -56.439
  O     -206.978     244.986     -55.755
  O     -208.660     244.379     -53.856
  O     -207.468     246.644     -53.932
  H     -207.261     246.359     -53.024
  H     -205.536     245.587     -57.069
  H     -205.825     246.669     -55.728
  H     -206.978     246.574     -57.037

 6  7  8  9  10  11  12  13  14  15  25  28  32  33  34  35 0
 6-311+G(2d,p)
 ****
 36  39  40 0
 6-311+G(2d,p)
 ****
 1  2  3  4  5  16  17  18  19  20  21  22  23  24 0
 3-21G
 ****
 26  27  29  30  31  37  38  41  42  43  44  45  46  47 0
 3-21G
 ****
 48 0
 3-21G
 ****


