%nproc=1
%NoSave
%Mem=1900MB
#P OB98/GEN NMR

erre ene a

0 1
  C     1177.260    -987.798      16.974
  O     1175.920    -988.280      16.924
  H     1177.836    -988.202      16.131
  H     1177.253    -986.712      16.903
  H     1177.721    -988.093      17.920
  P     1175.718    -989.868      17.024
  C     1175.276    -989.444      19.554
  O     1175.938    -990.237      18.571
  C     1174.092    -990.245      20.109
  O     1174.565    -991.405      20.828
  C     1173.244    -989.471      21.129
  O     1172.289    -988.602      20.484
  C     1172.543    -990.599      21.849
  O     1171.464    -991.117      21.023
  C     1173.673    -991.643      21.962
  N     1174.299    -993.666      26.596
  C     1173.441    -993.968      25.618
  N     1173.362    -993.366      24.404
  C     1174.225    -992.393      24.289
  C     1175.152    -991.936      25.220
  C     1175.179    -992.647      26.437
  N     1176.037    -992.332      27.471
  N     1175.883    -990.872      24.734
  C     1175.419    -990.668      23.526
  N     1174.409    -991.554      23.210
  O     1177.024    -990.465      16.328
  O     1174.452    -990.393      16.423
  H     1171.154    -991.940      21.460
  H     1176.866    -991.388      16.028
  H     1172.770    -994.802      25.804
  H     1175.779    -989.917      22.837
  H     1173.310    -992.676      21.872
  H     1172.104    -990.303      22.796
  H     1173.872    -988.912      21.837
  H     1173.467    -990.591      19.281
  H     1174.888    -988.535      19.070
  H     1175.850    -992.760      28.371
  H     1176.584    -991.478      27.403
  H     1175.966    -989.185      20.346
  P     1172.083    -987.145      21.137
  C     1173.503    -985.839      19.358
  O     1173.364    -986.281      20.718
  O     1172.298    -987.400      22.684
  O     1170.753    -986.523      20.826
  H     1171.788    -986.753      23.233
  H     1174.409    -985.279      19.256
  H     1172.670    -985.220      19.097
  H     1173.533    -986.689      18.708

 6  7  8  9  10  11  12  13  14  15  25  28  32  33  34  35 0
 6-311+G(2d,p)
 ****
 36  39  40 0
 6-311+G(2d,p)
 ****
 1  2  3  4  5  16  17  18  19  20  21  22  23  24 0
 3-21G
 ****
 26  27  29  30  31  37  38  41  42  43  44  45  46  47 0
 3-21G
 ****
 48 0
 3-21G
 ****


