%nproc=1
%NoSave
%Mem=1900MB
#P OB98/GEN NMR

erre ene a

0 1
  C     -423.074     537.487     397.811
  O     -423.503     536.173     397.505
  H     -422.195     537.721     397.199
  H     -422.795     537.557     398.866
  H     -423.864     538.210     397.581
  P     -424.838     535.611     398.195
  C     -424.205     533.470     399.479
  O     -424.694     534.013     398.256
  C     -423.975     531.966     399.347
  O     -422.794     531.738     398.538
  C     -423.777     531.252     400.691
  O     -424.416     529.977     400.626
  C     -422.272     531.072     400.770
  O     -421.904     529.958     401.586
  C     -421.902     530.899     399.293
  N     -417.123     529.242     399.432
  C     -418.305     528.567     399.672
  N     -418.216     527.270     400.036
  N     -419.492     529.128     399.583
  C     -419.438     530.428     399.200
  C     -418.337     531.200     398.930
  C     -417.036     530.577     399.051
  O     -415.947     531.119     398.862
  N     -418.689     532.488     398.596
  C     -420.016     532.491     398.672
  N     -420.516     531.269     399.042
  O     -426.117     536.095     397.596
  O     -424.699     536.051     399.727
  H     -420.927     530.002     401.707
  H     -425.232     536.849     399.906
  H     -416.240     528.768     399.525
  H     -420.649     533.343     398.476
  H     -422.023     529.862     398.952
  H     -421.811     531.980     401.187
  H     -417.341     526.774     400.115
  H     -424.169     531.826     401.540
  H     -419.070     526.758     400.200
  H     -424.827     531.529     398.800
  H     -424.945     533.669     400.264
  H     -423.266     533.968     399.747
  P     -425.280     529.482     401.882
  C     -423.921     527.686     403.148
  O     -424.916     527.940     402.165
  O     -426.732     529.792     401.831
  O     -424.571     530.226     403.120
  H     -425.234     530.392     403.814
  H     -423.773     526.630     403.241
  H     -424.239     528.086     404.088
  H     -423.003     528.151     402.855

 6  7  8  9  10  11  12  13  14  15  26  29  33  34 0
 6-311+G(2d,p)
 ****
 36  38  39  40  41 0
 6-311+G(2d,p)
 ****
 1  2  3  4  5  16  17  18  19  20  21  22  23  24  25 0
 3-21G
 ****
 27  28  30  31  32  35  37  42  43  44  45  46  47 0
 3-21G
 ****
 48  49 0
 3-21G
 ****


