%nproc=1
%NoSave
%Mem=1900MB
#P OB98/GEN NMR

erre ene a

0 1
  C     -100.625     -13.799    -169.919
  O      -99.270     -14.242    -169.888
  P      -98.720     -14.866    -168.517
  C      -99.131     -12.762    -167.006
  O      -99.448     -14.108    -167.303
  C      -99.998     -12.232    -165.846
  O      -99.573     -10.873    -165.541
  C     -101.493     -12.135    -166.143
  O     -102.204     -12.050    -164.901
  C     -101.581     -10.803    -166.867
  O     -102.911     -10.298    -166.880
  C     -100.543      -9.946    -166.101
  N      -99.855      -8.952    -166.952
  C     -100.486      -7.724    -167.178
  O     -101.576      -7.416    -166.710
  N      -99.821      -6.850    -168.002
  C      -98.604      -7.061    -168.572
  O      -98.097      -6.284    -169.377
  C      -97.925      -8.307    -168.193
  C      -98.571      -9.183    -167.422
  O      -97.207     -14.358    -168.449
  O      -98.815     -16.358    -168.455
  H     -102.851      -9.351    -167.153
  H      -96.595     -15.087    -168.660
  H     -100.294      -5.989    -168.227
  H      -96.924      -8.474    -168.577
  H      -98.096     -10.120    -167.146
  H     -101.017      -9.395    -165.274
  H     -101.271     -10.926    -167.904
  H     -101.893     -12.954    -166.748
  H      -99.821     -12.845    -164.957
  H      -99.268     -12.141    -167.898
  H      -98.073     -12.685    -166.730
  P     -102.461     -13.413    -164.089
  C     -104.892     -13.856    -164.804
  O     -103.536     -14.248    -164.941
  O     -102.763     -13.257    -162.637
  O     -101.105     -14.237    -164.337
  H     -101.019     -14.934    -163.664
  H     -105.419     -14.089    -165.739
  H     -104.984     -12.783    -164.607
  H     -105.352     -14.420    -163.991
  H     -100.851     -13.409    -170.890
  H     -100.767     -13.033    -169.185
  H     -101.274     -14.622    -169.705

 3  4  5  6  7  8  9  10  11  12  13  23  28  29  30  31  32 0
 6-311+G(2d,p)
 ****
 33  34 0
 6-311+G(2d,p)
 ****
 1  2  14  15  16  17  18  19  20  21  22  24  25  26  27 0
 3-21G
 ****
 35  36  37  38  39  40  41  42  43  44  45 0
 3-21G
 ****


