%nproc=1
%NoSave
%Mem=1900MB
#P OB98/GEN NMR

erre ene a

0 1
  C      529.472    -415.742     -55.758
  O      528.320    -415.626     -56.607
  P      528.010    -414.195     -57.264
  C      525.482    -414.167     -56.644
  O      526.460    -414.145     -57.673
  C      524.075    -414.260     -57.248
  O      523.781    -415.587     -57.725
  C      522.964    -413.934     -56.256
  O      522.776    -412.536     -56.125
  C      521.765    -414.564     -56.941
  O      521.284    -413.694     -57.985
  C      522.366    -415.837     -57.552
  N      519.348    -419.852     -56.539
  C      519.219    -418.825     -57.404
  N      520.056    -417.777     -57.604
  C      521.133    -417.875     -56.803
  C      521.396    -418.863     -55.871
  C      520.445    -419.889     -55.753
  N      520.585    -420.938     -54.863
  N      522.597    -418.625     -55.228
  C      523.052    -417.513     -55.771
  N      522.194    -417.021     -56.730
  O      528.762    -414.273     -58.673
  O      528.495    -413.039     -56.450
  H      521.014    -412.854     -57.557
  H      529.109    -413.398     -58.913
  H      518.323    -418.836     -58.021
  H      523.982    -417.030     -55.524
  H      521.952    -416.064     -58.540
  H      520.928    -414.733     -56.260
  H      523.144    -414.427     -55.290
  H      524.025    -413.567     -58.096
  H      525.563    -413.273     -56.028
  H      519.875    -421.654     -54.854
  H      521.415    -420.983     -54.289
  H      525.685    -415.019     -55.984
  P      522.102    -412.008     -54.768
  C      520.321    -410.848     -56.269
  O      521.220    -410.738     -55.180
  O      523.338    -411.379     -53.970
  O      521.400    -413.064     -53.978
  H      523.188    -411.459     -53.011
  H      519.604    -410.021     -56.223
  H      519.771    -411.798     -56.225
  H      520.871    -410.787     -57.218
  H      529.549    -416.746     -55.396
  H      529.374    -415.071     -54.930
  H      530.352    -415.495     -56.315

 3  4  5  6  7  8  9  10  11  12  22  25  29  30  31  32 0
 6-311+G(2d,p)
 ****
 33  36  37 0
 6-311+G(2d,p)
 ****
 1  2  13  14  15  16  17  18  19  20  21  23  24  26 0
 3-21G
 ****
 27  28  34  35  38  39  40  41  42  43  44  45  46  47  48 0
 3-21G
 ****


