%nproc=1
%NoSave
%Mem=1900MB
#P OB98/GEN NMR

erre ene a

0 1
  C     -292.198    -800.586    -303.601
  O     -292.122    -800.880    -302.205
  P     -292.710    -799.895    -301.091
  C     -290.459    -798.843    -300.418
  O     -291.749    -798.611    -300.968
  C     -289.459    -797.767    -300.839
  O     -290.030    -796.449    -300.687
  C     -288.152    -797.762    -300.049
  O     -287.286    -798.786    -300.500
  C     -287.662    -796.338    -300.300
  O     -287.005    -796.250    -301.580
  C     -288.971    -795.543    -300.317
  N     -287.057    -792.763    -296.471
  C     -286.516    -793.201    -297.620
  N     -287.086    -793.947    -298.598
  C     -288.366    -794.207    -298.297
  C     -289.065    -793.824    -297.152
  C     -288.350    -793.067    -296.209
  N     -288.896    -792.640    -295.022
  N     -290.357    -794.302    -297.190
  C     -290.452    -794.943    -298.339
  N     -289.272    -794.910    -299.042
  O     -293.019    -800.558    -299.779
  O     -294.054    -799.295    -301.743
  H     -286.362    -796.975    -301.632
  H     -294.684    -799.057    -301.041
  H     -285.475    -792.926    -297.792
  H     -291.343    -795.436    -298.701
  H     -288.961    -794.748    -301.075
  H     -286.949    -796.002    -299.543
  H     -288.367    -797.882    -298.983
  H     -289.252    -797.902    -301.917
  H     -290.109    -799.827    -300.761
  H     -288.316    -792.125    -294.384
  H     -289.853    -792.905    -294.797
  H     -290.540    -798.865    -299.328
  P     -287.137    -800.140    -299.664
  C     -286.423    -798.745    -297.641
  O     -287.284    -799.764    -298.120
  O     -285.953    -800.985    -300.008
  O     -288.508    -800.917    -299.967
  H     -288.355    -801.881    -299.917
  H     -285.432    -799.166    -297.449
  H     -286.833    -798.343    -296.709
  H     -286.343    -797.921    -298.368
  H     -291.744    -801.379    -304.158
  H     -291.683    -799.670    -303.801
  H     -293.224    -800.489    -303.890

 3  4  5  6  7  8  9  10  11  12  22  25  29  30  31  32 0
 6-311+G(2d,p)
 ****
 33  36  37 0
 6-311+G(2d,p)
 ****
 1  2  13  14  15  16  17  18  19  20  21  23  24  26 0
 3-21G
 ****
 27  28  34  35  38  39  40  41  42  43  44  45  46  47  48 0
 3-21G
 ****


