%nproc=1
%NoSave
%Mem=1900MB
#P OB98/GEN NMR

erre ene a

0 1
  C      -55.179     -77.481     107.856
  O      -55.167     -78.434     108.900
  H      -54.442     -76.707     108.079
  H      -56.165     -77.018     107.788
  H      -54.921     -77.951     106.902
  P      -56.002     -79.783     108.674
  C      -55.285     -81.259     106.657
  O      -54.999     -80.829     107.980
  C      -54.199     -82.221     106.175
  O      -52.920     -81.527     106.205
  C      -54.058     -83.483     107.035
  O      -53.731     -84.580     106.176
  C      -52.862     -83.167     107.914
  O      -52.201     -84.316     108.424
  C      -51.998     -82.354     106.944
  N      -50.997     -81.541     107.630
  C      -49.659     -81.860     107.418
  O      -49.259     -82.717     106.633
  N      -48.756     -81.141     108.159
  C      -49.053     -80.181     109.080
  O      -48.198     -79.587     109.727
  C      -50.482     -79.894     109.267
  C      -51.373     -80.579     108.547
  O      -57.005     -79.391     107.492
  O      -56.711     -80.308     109.877
  H      -57.833     -79.026     107.855
  H      -52.777     -84.703     109.115
  H      -47.783     -81.360     108.018
  H      -50.755     -79.146     109.998
  H      -52.437     -80.407     108.675
  H      -51.505     -83.017     106.225
  H      -53.177     -82.552     108.764
  H      -54.948     -83.726     107.624
  H      -54.399     -82.481     105.129
  H      -55.312     -80.390     105.992
  H      -56.264     -81.747     106.641
  P      -54.576     -85.934     106.356
  C      -57.181     -86.152     106.526
  O      -56.061     -85.581     105.865
  O      -54.691     -86.016     107.947
  O      -53.935     -87.111     105.703
  H      -54.771     -85.144     108.369
  H      -58.082     -85.805     106.065
  H      -57.173     -85.862     107.556
  H      -57.131     -87.218     106.455

 6  7  8  9  10  11  12  13  14  15  16  27  31  32  33  34  35 0
 6-311+G(2d,p)
 ****
 36  37 0
 6-311+G(2d,p)
 ****
 1  2  3  4  5  17  18  19  20  21  22  23  24  25 0
 3-21G
 ****
 26  28  29  30  38  39  40  41  42  43  44  45 0
 3-21G
 ****


