%nproc=1
%NoSave
%Mem=1900MB
#P OB98/GEN NMR

erre ene a

0 1
  C       22.783      32.623     -26.192
  O       21.724      31.769     -26.572
  P       21.944      30.607     -27.649
  C       20.807      31.817     -29.600
  O       22.024      31.282     -29.100
  C       20.958      32.293     -31.043
  O       21.681      33.553     -31.062
  C       21.706      31.309     -31.953
  O       21.072      31.352     -33.236
  C       23.099      31.903     -32.027
  O       23.814      31.467     -33.175
  C       22.775      33.399     -31.987
  N       23.919      34.207     -31.596
  C       24.497      35.006     -32.584
  O       24.123      34.910     -33.754
  N       25.491      35.879     -32.222
  C       25.991      35.819     -31.026
  N       26.926      36.747     -30.688
  C       25.570      34.811     -30.032
  C       24.513      34.075     -30.362
  O       20.989      29.463     -27.550
  O       23.448      30.116     -27.397
  H       23.451      29.148     -27.267
  H       24.134      30.553     -33.021
  H       26.100      34.717     -29.096
  H       24.111      33.327     -29.689
  H       22.419      33.742     -32.967
  H       23.672      31.611     -31.139
  H       21.687      30.283     -31.574
  H       19.957      32.489     -31.445
  H       27.159      37.446     -31.381
  H       20.526      32.667     -28.973
  H       27.132      36.978     -29.717
  H       20.011      31.068     -29.522
  P       20.988      29.994     -34.089
  C       22.927      30.717     -35.654
  O       22.420      29.747     -34.763
  O       20.104      30.460     -35.348
  O       20.341      28.825     -33.422
  H       19.654      29.681     -35.724
  H       23.873      30.353     -36.064
  H       23.114      31.656     -35.127
  H       22.230      30.885     -36.478
  H       22.431      33.326     -25.466
  H       23.144      33.148     -27.052
  H       23.576      32.042     -25.770

 3  4  5  6  7  8  9  10  11  12  13  24  27  28  29  30  32 0
 6-311+G(2d,p)
 ****
 34  35 0
 6-311+G(2d,p)
 ****
 1  2  14  15  16  17  18  19  20  21  22  23  25  26 0
 3-21G
 ****
 31  33  36  37  38  39  40  41  42  43  44  45  46 0
 3-21G
 ****


