%nproc=1
%NoSave
%Mem=1900MB
#P OB98/GEN NMR

erre ene a

0 1
  C     -216.870     871.964     386.418
  O     -216.719     873.073     385.548
  P     -215.219     873.535     385.197
  C     -215.972     874.843     383.085
  O     -215.375     874.907     384.369
  C     -216.139     876.253     382.515
  O     -217.132     876.983     383.265
  C     -214.890     877.111     382.546
  O     -214.018     876.829     381.475
  C     -215.483     878.503     382.400
  O     -215.807     878.748     381.027
  C     -216.775     878.390     383.240
  N     -217.136     882.503     386.238
  C     -217.286     882.358     384.916
  N     -217.155     881.217     384.181
  C     -216.808     880.186     384.969
  C     -216.601     880.192     386.328
  C     -216.780     881.425     386.984
  N     -216.661     881.582     388.346
  N     -216.248     878.936     386.785
  C     -216.269     878.185     385.716
  N     -216.610     878.870     384.595
  O     -214.775     872.470     384.086
  O     -214.280     873.559     386.346
  H     -215.043     878.458     380.497
  H     -213.800     872.417     384.044
  H     -217.537     883.242     384.352
  H     -216.062     877.111     385.706
  H     -217.607     878.938     382.780
  H     -214.800     879.287     382.718
  H     -214.375     877.022     383.513
  H     -216.514     876.153     381.479
  H     -216.959     874.374     383.164
  H     -216.990     882.436     388.759
  H     -216.599     880.739     388.919
  H     -215.346     874.243     382.422
  P     -212.476     877.264     381.649
  C     -211.714     874.963     380.698
  O     -211.657     876.367     380.586
  O     -212.081     876.626     383.063
  O     -212.255     878.740     381.595
  H     -211.347     877.140     383.466
  H     -211.381     874.526     379.746
  H     -212.733     874.618     380.889
  H     -211.056     874.627     381.505
  H     -217.911     871.766     386.566
  H     -216.412     872.184     387.360
  H     -216.401     871.105     385.986

 3  4  5  6  7  8  9  10  11  12  22  25  29  30  31  32 0
 6-311+G(2d,p)
 ****
 33  36  37 0
 6-311+G(2d,p)
 ****
 1  2  13  14  15  16  17  18  19  20  21  23  24  26 0
 3-21G
 ****
 27  28  34  35  38  39  40  41  42  43  44  45  46  47  48 0
 3-21G
 ****


