%nproc=1
%NoSave
%Mem=1900MB
#P OB98/GEN NMR

erre ene a

0 1
  C     -601.533     324.954    -197.770
  O     -602.190     326.174    -197.417
  P     -602.523     327.230    -198.569
  C     -600.166     328.418    -198.358
  O     -601.173     327.837    -199.162
  C     -599.110     329.084    -199.255
  O     -599.754     329.918    -200.246
  C     -598.130     329.957    -198.495
  O     -597.029     329.223    -197.996
  C     -597.734     330.981    -199.544
  O     -596.779     330.412    -200.461
  C     -599.085     331.217    -200.268
  N     -600.013     332.227    -199.699
  C     -599.772     333.583    -199.912
  O     -598.824     334.021    -200.558
  N     -600.678     334.450    -199.371
  C     -601.864     334.116    -198.784
  O     -602.678     334.950    -198.375
  C     -602.151     332.675    -198.724
  C     -601.229     331.814    -199.153
  O     -603.179     328.467    -197.782
  O     -603.433     326.705    -199.641
  H     -596.662     331.046    -201.188
  H     -604.114     328.576    -198.042
  H     -600.486     335.428    -199.449
  H     -603.104     332.364    -198.312
  H     -601.420     330.746    -199.105
  H     -598.926     331.485    -201.315
  H     -597.250     331.857    -199.096
  H     -598.651     330.490    -197.688
  H     -598.570     328.283    -199.794
  H     -599.692     327.661    -197.731
  H     -600.616     329.163    -197.693
  P     -597.074     328.662    -196.488
  C     -595.929     330.738    -195.534
  O     -597.111     329.960    -195.549
  O     -596.047     327.633    -196.140
  O     -598.577     328.103    -196.347
  H     -598.589     327.122    -196.508
  H     -596.118     331.668    -194.977
  H     -595.620     330.996    -196.545
  H     -595.118     330.192    -195.019
  H     -601.384     324.362    -196.891
  H     -600.586     325.175    -198.216
  H     -602.138     324.412    -198.467

 3  4  5  6  7  8  9  10  11  12  13  23  28  29  30  31  32 0
 6-311+G(2d,p)
 ****
 33  34 0
 6-311+G(2d,p)
 ****
 1  2  14  15  16  17  18  19  20  21  22  24  25  26  27 0
 3-21G
 ****
 35  36  37  38  39  40  41  42  43  44  45 0
 3-21G
 ****


