%nproc=1
%NoSave
%Mem=1900MB
#P OB98/GEN NMR

erre ene a

0 1
  C     -358.876     223.277      76.436
  O     -358.052     222.264      75.880
  P     -356.569     222.673      75.437
  C     -355.599     223.673      73.232
  O     -356.710     223.585      74.123
  C     -355.898     222.924      71.928
  O     -355.903     221.491      72.196
  C     -357.244     223.278      71.271
  O     -357.039     223.204      69.845
  C     -358.132     222.148      71.761
  O     -359.331     222.006      71.013
  C     -357.161     220.982      71.681
  N     -359.315     216.337      71.457
  C     -358.941     217.208      70.484
  N     -358.367     218.422      70.624
  C     -358.170     218.703      71.929
  C     -358.507     217.927      73.016
  C     -359.112     216.681      72.755
  N     -359.496     215.801      73.732
  N     -358.178     218.574      74.198
  C     -357.651     219.711      73.820
  N     -357.595     219.834      72.455
  O     -355.976     221.303      74.842
  O     -355.706     223.230      76.528
  H     -359.127     221.768      70.089
  H     -355.035     221.196      75.095
  H     -359.138     216.887      69.451
  H     -357.282     220.489      74.484
  H     -356.981     220.643      70.643
  H     -358.433     222.351      72.783
  H     -357.597     224.286      71.543
  H     -355.069     223.114      71.240
  H     -354.734     223.220      73.703
  H     -360.094     215.031      73.449
  H     -359.528     216.164      74.686
  H     -355.375     224.732      73.048
  P     -357.400     224.496      68.944
  C     -359.676     225.113      67.930
  O     -358.998     224.600      69.058
  O     -357.210     223.896      67.485
  O     -356.614     225.741      69.241
  H     -357.685     223.059      67.365
  H     -360.760     225.030      68.092
  H     -359.419     224.538      67.028
  H     -359.418     226.170      67.784
  H     -359.831     222.864      76.684
  H     -359.002     224.065      75.723
  H     -358.415     223.666      77.320

 3  4  5  6  7  8  9  10  11  12  22  25  29  30  31  32 0
 6-311+G(2d,p)
 ****
 33  36  37 0
 6-311+G(2d,p)
 ****
 1  2  13  14  15  16  17  18  19  20  21  23  24  26 0
 3-21G
 ****
 27  28  34  35  38  39  40  41  42  43  44  45  46  47  48 0
 3-21G
 ****


