%nproc=1
%NoSave
%Mem=1900MB
#P OB98/GEN NMR

erre ene a

0 1
  C      666.233    -719.126    -522.409
  O      665.318    -719.069    -523.504
  P      665.575    -717.963    -524.653
  C      667.231    -717.896    -526.632
  O      666.311    -718.688    -525.883
  C      668.000    -718.755    -527.659
  O      668.518    -719.941    -526.971
  C      667.138    -719.275    -528.820
  O      667.048    -718.479    -529.988
  C      667.935    -720.536    -529.236
  O      669.015    -720.162    -530.096
  C      668.497    -721.044    -527.912
  N      667.080    -725.952    -528.500
  C      667.874    -725.158    -529.235
  N      668.213    -723.853    -529.006
  C      667.614    -723.396    -527.882
  C      666.791    -724.119    -527.036
  C      666.505    -725.438    -527.376
  N      665.698    -726.275    -526.626
  N      666.377    -723.311    -525.984
  C      666.944    -722.134    -526.208
  N      667.712    -722.153    -527.348
  O      666.192    -716.690    -524.211
  O      664.106    -717.731    -525.233
  H      669.409    -721.004    -530.426
  H      664.000    -716.780    -525.446
  H      668.324    -725.597    -530.118
  H      666.819    -721.272    -525.581
  H      669.528    -721.409    -527.992
  H      667.321    -721.255    -529.784
  H      666.147    -719.580    -528.481
  H      668.854    -718.182    -528.047
  H      667.942    -717.426    -525.962
  H      665.528    -727.196    -526.980
  H      665.216    -725.884    -525.834
  H      666.652    -717.097    -527.106
  P      665.892    -717.341    -530.124
  C      665.969    -714.719    -530.082
  O      666.662    -715.938    -530.040
  O      664.730    -717.476    -529.166
  O      665.478    -717.450    -531.659
  H      666.180    -717.151    -532.278
  H      666.637    -713.910    -529.795
  H      665.117    -714.748    -529.362
  H      665.577    -714.536    -531.095
  H      665.935    -719.902    -521.735
  H      666.233    -718.187    -521.895
  H      667.217    -719.332    -522.776

 3  4  5  6  7  8  9  10  11  12  22  25  29  30  31  32 0
 6-311+G(2d,p)
 ****
 33  36  37 0
 6-311+G(2d,p)
 ****
 1  2  13  14  15  16  17  18  19  20  21  23  24  26 0
 3-21G
 ****
 27  28  34  35  38  39  40  41  42  43  44  45  46  47  48 0
 3-21G
 ****


