%nproc=1
%NoSave
%Mem=1900MB
#P OB98/GEN NMR

erre ene a

0 1
  C     -124.572     196.108      96.661
  O     -124.433     196.666      97.951
  H     -125.098     196.818      96.023
  H     -125.152     195.184      96.716
  H     -123.588     195.902      96.226
  P     -123.579     195.832      99.022
  C     -125.254     194.500     100.511
  O     -124.436     194.513      99.350
  C     -125.601     193.059     100.884
  O     -124.445     192.449     101.520
  C     -126.773     192.953     101.872
  O     -127.551     191.797     101.549
  C     -126.081     192.752     103.209
  O     -126.901     192.118     104.185
  C     -124.871     191.918     102.789
  N     -123.784     191.973     103.768
  C     -123.995     191.359     104.996
  O     -124.997     190.713     105.296
  N     -122.984     191.517     105.917
  C     -121.834     192.228     105.739
  O     -120.982     192.349     106.607
  C     -121.671     192.859     104.418
  C     -122.640     192.708     103.510
  O     -123.719     196.699     100.362
  O     -122.158     195.570      98.654
  H     -122.996     197.350     100.425
  H     -127.122     191.220     103.856
  H     -123.124     191.078     106.816
  H     -120.773     193.434     104.242
  H     -122.556     193.170     102.533
  H     -125.167     190.875     102.626
  H     -125.765     193.721     103.614
  H     -127.412     193.837     101.868
  H     -125.803     192.489      99.968
  H     -126.177     195.050     100.308
  H     -124.721     194.988     101.331
  P     -128.755     191.986     100.500
  C     -130.542     192.718     102.263
  O     -129.739     193.075     101.152
  O     -129.536     190.601     100.658
  O     -128.278     192.296      99.121
  H     -129.550     190.263     101.570
  H     -131.130     193.560     102.563
  H     -129.914     192.414     103.074
  H     -131.189     191.910     101.991

 6  7  8  9  10  11  12  13  14  15  16  27  31  32  33  34  35 0
 6-311+G(2d,p)
 ****
 36  37 0
 6-311+G(2d,p)
 ****
 1  2  3  4  5  17  18  19  20  21  22  23  24  25 0
 3-21G
 ****
 26  28  29  30  38  39  40  41  42  43  44  45 0
 3-21G
 ****


