%nproc=1
%NoSave
%Mem=1900MB
#P OB98/GEN NMR

erre ene a

0 1
  C     -301.505     504.797     -10.368
  O     -302.526     505.519     -11.023
  H     -300.722     504.515     -11.077
  H     -301.066     505.432      -9.593
  H     -301.920     503.901      -9.895
  P     -303.226     504.790     -12.270
  C     -301.989     506.564     -13.701
  O     -302.383     505.205     -13.572
  C     -301.618     506.871     -15.147
  O     -300.623     505.935     -15.614
  C     -302.771     506.757     -16.136
  O     -303.615     507.904     -16.104
  C     -302.006     506.661     -17.451
  O     -301.600     507.977     -17.873
  C     -300.774     505.833     -17.056
  N     -301.212     502.471     -20.913
  C     -301.137     503.821     -20.898
  N     -301.034     504.648     -19.839
  C     -300.992     503.951     -18.690
  C     -301.056     502.574     -18.550
  C     -301.175     501.817     -19.730
  N     -301.268     500.439     -19.732
  N     -300.967     502.214     -17.223
  C     -300.853     503.354     -16.568
  N     -300.869     504.431     -17.416
  O     -304.602     505.596     -12.452
  O     -303.468     503.327     -12.103
  H     -300.941     507.849     -18.585
  H     -305.296     504.974     -12.735
  H     -301.161     504.301     -21.874
  H     -300.752     503.443     -15.493
  H     -299.856     506.234     -17.502
  H     -302.593     506.227     -18.260
  H     -303.341     505.835     -15.982
  H     -301.175     507.874     -15.178
  H     -301.121     506.754     -13.061
  H     -301.155     499.953     -20.604
  H     -301.236     499.960     -18.836
  H     -302.816     507.202     -13.376
  P     -305.199     507.653     -16.046
  C     -305.970     508.699     -18.290
  O     -305.673     507.508     -17.571
  O     -305.775     509.084     -15.612
  O     -305.630     506.575     -15.112
  H     -306.638     508.973     -15.168
  H     -306.270     508.449     -19.286
  H     -305.100     509.321     -18.326
  H     -306.763     509.223     -17.799

 6  7  8  9  10  11  12  13  14  15  25  28  32  33  34  35 0
 6-311+G(2d,p)
 ****
 36  39  40 0
 6-311+G(2d,p)
 ****
 1  2  3  4  5  16  17  18  19  20  21  22  23  24 0
 3-21G
 ****
 26  27  29  30  31  37  38  41  42  43  44  45  46  47  48 0
 3-21G
 ****


