%nproc=1
%NoSave
%Mem=1900MB
#P OB98/GEN NMR

erre ene a

0 1
  C      242.072     500.121     124.907
  O      242.405     500.278     123.544
  H      241.703     499.103     125.060
  H      241.284     500.823     125.197
  H      242.955     500.269     125.535
  P      242.866     501.732     123.036
  C      240.445     502.344     122.338
  O      241.783     502.117     121.913
  C      239.666     503.099     121.260
  O      240.282     504.372     120.973
  C      239.594     502.393     119.912
  O      238.702     501.290     119.898
  C      239.115     503.539     119.038
  O      237.710     503.759     119.261
  C      239.956     504.713     119.597
  N      241.172     504.960     118.828
  C      241.070     505.861     117.758
  O      239.996     506.400     117.495
  N      242.180     506.094     116.979
  C      243.289     505.476     117.239
  N      244.350     505.712     116.409
  C      243.450     504.539     118.365
  C      242.363     504.325     119.109
  O      244.297     501.864     122.619
  O      242.455     502.717     124.228
  H      237.477     504.587     118.805
  H      242.731     503.632     123.968
  H      244.396     504.042     118.533
  H      242.393     503.633     119.943
  H      239.363     505.637     119.627
  H      239.248     503.357     117.968
  H      240.593     502.085     119.576
  H      238.666     503.303     121.663
  H      244.190     506.326     115.625
  H      240.478     502.917     123.273
  H      245.143     505.074     116.372
  H      239.941     501.392     122.524
  P      239.331     499.813     119.778
  C      238.251     499.246     117.472
  O      238.325     498.963     118.858
  O      239.108     499.212     121.243
  O      240.765     499.752     119.345
  H      239.896     499.347     121.806
  H      237.538     498.594     117.012
  H      239.212     499.096     117.026
  H      237.947     500.262     117.331

 6  7  8  9  10  11  12  13  14  15  16  26  30  31  32  33  35 0
 6-311+G(2d,p)
 ****
 37  38 0
 6-311+G(2d,p)
 ****
 1  2  3  4  5  17  18  19  20  21  22  23  24  25 0
 3-21G
 ****
 27  28  29  34  36  39  40  41  42  43  44  45  46 0
 3-21G
 ****


