%nproc=1
%NoSave
%Mem=1900MB
#P OB98/GEN NMR

erre ene a

0 1
  C      241.018     838.744      53.202
  O      241.920     838.981      52.111
  P      243.476     839.160      52.463
  C      243.655     841.757      52.391
  O      243.675     840.580      53.185
  C      244.142     842.956      53.212
  O      243.087     843.494      54.025
  C      245.247     842.604      54.192
  O      246.493     842.483      53.521
  C      245.185     843.761      55.180
  O      246.047     844.851      54.777
  C      243.696     844.187      55.127
  N      242.996     843.922      56.375
  C      243.118     844.903      57.362
  O      243.806     845.907      57.162
  N      242.478     844.711      58.559
  C      241.809     843.615      58.762
  N      241.192     843.470      59.973
  C      241.676     842.543      57.760
  C      242.289     842.755      56.591
  O      244.151     839.377      51.033
  O      244.069     837.994      53.188
  H      246.120     845.431      55.562
  H      245.050     838.996      51.024
  H      241.104     841.644      57.968
  H      242.252     842.026      55.795
  H      243.626     845.255      54.912
  H      245.517     843.455      56.176
  H      245.009     841.664      54.706
  H      244.495     843.742      52.518
  H      241.311     844.233      60.645
  H      242.643     841.946      52.018
  H      240.643     842.660      60.229
  H      244.284     841.603      51.509
  P      247.083     841.014      53.285
  C      248.141     840.562      55.579
  O      247.038     840.309      54.731
  O      248.653     841.315      53.109
  O      246.530     840.228      52.146
  H      249.118     840.492      52.859
  H      247.893     840.211      56.589
  H      248.356     841.623      55.639
  H      249.019     840.012      55.224
  H      240.021     838.645      52.826
  H      241.061     839.566      53.885
  H      241.299     837.844      53.708

 3  4  5  6  7  8  9  10  11  12  13  21  23  27  28  29  30  32 0
 6-311+G(2d,p)
 ****
 34  35 0
 6-311+G(2d,p)
 ****
 1  2  14  15  16  17  18  19  20  22  24  25  26 0
 3-21G
 ****
 31  33  36  37  38  39  40  41  42  43  44  45  46 0
 3-21G
 ****


