%nproc=1
%NoSave
%Mem=1900MB
#P OB98/GEN NMR

erre ene a

0 1
  C      288.621    -125.463    -147.220
  O      288.460    -126.331    -146.115
  H      287.685    -125.443    -147.784
  H      289.416    -125.825    -147.876
  H      288.845    -124.448    -146.882
  P      289.699    -126.540    -145.119
  C      289.740    -126.828    -142.542
  O      289.087    -126.244    -143.660
  C      289.474    -126.003    -141.285
  O      289.976    -124.655    -141.428
  C      287.999    -125.828    -140.934
  O      287.396    -126.991    -140.401
  C      288.109    -124.712    -139.908
  O      288.592    -125.245    -138.664
  C      289.164    -123.799    -140.576
  N      288.560    -122.720    -141.359
  C      288.514    -121.458    -140.756
  O      288.955    -121.287    -139.619
  N      287.937    -120.416    -141.442
  C      287.430    -120.624    -142.619
  N      286.863    -119.556    -143.252
  C      287.438    -121.939    -143.282
  C      288.016    -122.931    -142.608
  O      290.947    -125.786    -145.456
  O      289.907    -128.126    -145.062
  H      289.350    -125.820    -138.878
  H      290.674    -128.310    -144.465
  H      286.977    -122.068    -144.250
  H      288.058    -123.929    -143.029
  H      289.835    -123.360    -139.825
  H      287.155    -124.223    -139.702
  H      287.432    -125.452    -141.797
  H      290.030    -126.469    -140.461
  H      286.870    -118.667    -142.768
  H      290.809    -126.879    -142.760
  H      286.380    -119.643    -144.135
  H      289.360    -127.841    -142.377
  P      285.911    -126.829    -139.795
  C      284.286    -128.686    -138.938
  O      285.214    -128.268    -139.926
  O      285.172    -125.933    -140.887
  O      285.851    -126.239    -138.423
  H      285.152    -124.997    -140.614
  H      283.922    -129.662    -139.181
  H      283.467    -127.998    -138.904
  H      284.769    -128.713    -137.984

 6  7  8  9  10  11  12  13  14  15  16  26  30  31  32  33  35 0
 6-311+G(2d,p)
 ****
 37  38 0
 6-311+G(2d,p)
 ****
 1  2  3  4  5  17  18  19  20  21  22  23  24  25 0
 3-21G
 ****
 27  28  29  34  36  39  40  41  42  43  44  45  46 0
 3-21G
 ****


