%nproc=1
%NoSave
%Mem=1900MB
#P OB98/GEN NMR

erre ene a

0 1
  C      271.367    -134.074      24.151
  O      272.240    -135.098      23.714
  H      271.619    -133.139      23.645
  H      270.342    -134.350      23.888
  H      271.432    -133.943      25.234
  P      273.750    -135.054      24.251
  C      275.005    -136.875      25.614
  O      274.191    -136.582      24.489
  C      275.212    -138.381      25.750
  O      273.964    -138.979      26.210
  C      275.616    -139.085      24.445
  O      276.573    -140.102      24.756
  C      274.325    -139.744      23.991
  O      274.550    -140.879      23.164
  C      273.673    -140.079      25.329
  N      270.088    -143.545      24.332
  C      271.383    -143.666      24.692
  N      272.260    -142.685      24.994
  C      271.657    -141.482      24.960
  C      270.343    -141.203      24.618
  C      269.544    -142.306      24.272
  N      268.243    -142.190      23.839
  N      270.120    -139.839      24.646
  C      271.281    -139.307      24.975
  N      272.241    -140.261      25.171
  O      273.567    -134.481      25.739
  O      274.697    -134.229      23.447
  H      274.810    -140.574      22.272
  H      273.582    -133.508      25.718
  H      271.772    -144.679      24.735
  H      271.490    -138.249      25.049
  H      274.076    -140.996      25.778
  H      273.722    -139.021      23.429
  H      276.028    -138.409      23.689
  H      275.957    -138.562      26.533
  H      274.510    -136.500      26.516
  H      267.781    -143.024      23.510
  H      267.860    -141.268      23.684
  H      275.970    -136.367      25.507
  P      278.073    -139.891      24.229
  C      280.332    -139.691      25.509
  O      279.088    -140.368      25.374
  O      278.240    -138.297      24.227
  O      278.326    -140.474      22.875
  H      278.829    -138.022      23.502
  H      280.890    -140.126      26.312
  H      280.154    -138.657      25.718
  H      280.888    -139.781      24.599

 6  7  8  9  10  11  12  13  14  15  25  28  32  33  34  35 0
 6-311+G(2d,p)
 ****
 36  39  40 0
 6-311+G(2d,p)
 ****
 1  2  3  4  5  16  17  18  19  20  21  22  23  24 0
 3-21G
 ****
 26  27  29  30  31  37  38  41  42  43  44  45  46  47 0
 3-21G
 ****
 48 0
 3-21G
 ****


