%nproc=1
%NoSave
%Mem=1900MB
#P OB98/GEN NMR

erre ene a

0 1
  C      443.486     -20.655    -156.306
  O      443.460     -21.818    -155.462
  P      444.692     -22.834    -155.313
  C      443.716     -24.867    -156.589
  O      444.681     -23.821    -156.581
  C      443.817     -25.698    -157.871
  O      443.189     -25.004    -158.972
  C      445.238     -25.960    -158.359
  O      445.920     -26.916    -157.567
  C      444.974     -26.406    -159.801
  O      444.662     -27.802    -159.868
  C      443.742     -25.570    -160.187
  N      444.039     -24.523    -161.154
  C      443.962     -24.885    -162.506
  O      443.731     -26.047    -162.826
  N      444.158     -23.913    -163.455
  C      444.509     -22.716    -163.090
  N      444.680     -21.787    -164.075
  C      444.736     -22.333    -161.687
  C      444.484     -23.276    -160.779
  O      444.734     -23.546    -154.002
  O      446.005     -21.940    -155.532
  H      446.758     -22.349    -155.065
  H      443.883     -27.949    -159.293
  H      445.075     -21.338    -161.430
  H      444.613     -23.073    -159.721
  H      442.951     -26.220    -160.583
  H      445.845     -26.241    -160.448
  H      445.797     -25.014    -158.370
  H      443.290     -26.650    -157.706
  H      444.505     -22.083    -165.029
  H      442.714     -24.420    -156.535
  H      444.932     -20.826    -163.903
  H      443.855     -25.496    -155.702
  P      446.847     -26.355    -156.383
  C      449.057     -26.874    -157.652
  O      448.235     -25.896    -157.037
  O      447.228     -27.673    -155.557
  O      446.193     -25.334    -155.518
  H      447.230     -27.467    -154.598
  H      449.659     -26.394    -158.425
  H      448.461     -27.669    -158.115
  H      449.721     -27.307    -156.904
  H      442.550     -20.141    -156.234
  H      443.652     -20.954    -157.320
  H      444.275     -20.004    -155.992

 3  4  5  6  7  8  9  10  11  12  13  24  27  28  29  30  32 0
 6-311+G(2d,p)
 ****
 34  35 0
 6-311+G(2d,p)
 ****
 1  2  14  15  16  17  18  19  20  21  22  23  25  26 0
 3-21G
 ****
 31  33  36  37  38  39  40  41  42  43  44  45  46 0
 3-21G
 ****


