%nproc=1
%NoSave
%Mem=1900MB
#P OB98/GEN NMR

erre ene a

0 1
  C     -253.231    -845.660    -172.181
  O     -252.926    -844.503    -171.430
  H     -252.329    -845.987    -172.712
  H     -254.006    -845.437    -172.919
  H     -253.564    -846.474    -171.528
  P     -254.036    -843.900    -170.451
  C     -252.496    -843.885    -168.383
  O     -253.261    -843.099    -169.291
  C     -251.875    -842.977    -167.322
  O     -250.848    -842.149    -167.910
  C     -252.863    -842.020    -166.665
  O     -253.678    -842.701    -165.731
  C     -251.903    -841.003    -166.064
  O     -251.329    -841.490    -164.842
  C     -250.824    -840.905    -167.168
  N     -251.021    -839.750    -168.060
  C     -250.778    -838.512    -167.500
  O     -250.420    -838.344    -166.327
  N     -250.998    -837.432    -168.318
  C     -251.514    -837.482    -169.581
  O     -251.909    -836.497    -170.198
  C     -251.678    -838.837    -170.141
  C     -251.439    -839.889    -169.360
  O     -255.071    -844.863    -169.965
  O     -254.696    -842.722    -171.317
  H     -255.549    -843.028    -171.688
  H     -250.755    -842.241    -165.079
  H     -250.876    -836.515    -167.907
  H     -252.034    -838.928    -171.168
  H     -251.581    -840.890    -169.750
  H     -249.821    -840.826    -166.720
  H     -252.394    -840.052    -165.826
  H     -253.472    -841.528    -167.429
  H     -251.393    -843.625    -166.566
  H     -251.705    -844.393    -168.940
  H     -253.157    -844.631    -167.921
  P     -254.998    -842.019    -165.134
  C     -256.851    -843.357    -166.296
  O     -256.153    -843.133    -165.081
  O     -255.400    -840.741    -165.790
  O     -254.652    -841.786    -163.582
  H     -254.810    -840.836    -163.356
  H     -257.593    -844.114    -166.147
  H     -256.162    -843.677    -167.050
  H     -257.325    -842.450    -166.608

 6  7  8  9  10  11  12  13  14  15  16  27  31  32  33  34  35 0
 6-311+G(2d,p)
 ****
 36  37 0
 6-311+G(2d,p)
 ****
 1  2  3  4  5  17  18  19  20  21  22  23  24  25 0
 3-21G
 ****
 26  28  29  30  38  39  40  41  42  43  44  45 0
 3-21G
 ****


