%nproc=1
%NoSave
%Mem=1900MB
#P OB98/GEN NMR

erre ene a

0 1
  C      282.699    -368.424     339.066
  O      283.571    -368.464     337.956
  H      283.118    -367.751     339.820
  H      282.613    -369.423     339.501
  H      281.711    -368.055     338.784
  P      283.061    -369.138     336.592
  C      283.785    -367.088     335.196
  O      283.932    -368.486     335.411
  C      285.109    -366.461     334.752
  O      285.974    -366.320     335.918
  C      285.873    -367.289     333.705
  O      286.599    -366.372     332.890
  C      286.817    -368.086     334.578
  O      287.886    -368.627     333.828
  C      287.195    -367.037     335.632
  N      287.778    -367.636     336.833
  C      289.105    -368.030     336.751
  O      289.773    -367.929     335.716
  N      289.638    -368.595     337.878
  C      288.964    -368.850     339.037
  O      289.482    -369.392     340.002
  C      287.545    -368.453     339.058
  C      287.023    -367.866     337.972
  O      281.585    -369.108     336.369
  O      283.626    -370.634     336.658
  H      288.383    -367.910     333.379
  H      283.029    -371.237     336.178
  H      290.603    -368.877     337.834
  H      286.977    -368.647     339.957
  H      285.978    -367.560     337.955
  H      287.917    -366.327     335.223
  H      286.297    -368.932     335.048
  H      285.221    -367.916     333.095
  H      284.905    -365.452     334.386
  H      283.456    -366.640     336.141
  H      283.016    -366.916     334.435
  P      287.186    -366.786     331.448
  C      285.934    -365.051     330.017
  O      287.197    -365.490     330.498
  O      286.521    -367.984     330.841
  O      288.741    -367.076     331.705
  H      289.064    -367.727     331.056
  H      286.068    -364.187     329.400
  H      285.303    -364.803     330.845
  H      285.480    -365.832     329.444

 6  7  8  9  10  11  12  13  14  15  16  26  31  32  33  34  35 0
 6-311+G(2d,p)
 ****
 36  37 0
 6-311+G(2d,p)
 ****
 1  2  3  4  5  17  18  19  20  21  22  23  24  25 0
 3-21G
 ****
 27  28  29  30  38  39  40  41  42  43  44  45 0
 3-21G
 ****


