%nproc=1
%NoSave
%Mem=1900MB
#P OB98/GEN NMR

erre ene a

0 1
  C       76.824    -132.544     179.736
  O       77.046    -131.446     178.876
  P       77.954    -131.589     177.567
  C       80.271    -130.664     178.148
  O       79.010    -130.383     177.558
  C       81.287    -129.565     177.838
  O       81.719    -129.684     176.458
  C       80.753    -128.142     178.042
  O       81.822    -127.358     178.585
  C       80.427    -127.691     176.631
  O       80.394    -126.277     176.506
  C       81.542    -128.391     175.845
  N       81.233    -128.512     174.429
  C       81.318    -127.349     173.662
  O       81.513    -126.260     174.208
  N       81.163    -127.448     172.302
  C       80.771    -128.571     171.784
  N       80.697    -128.646     170.427
  C       80.430    -129.754     172.598
  C       80.723    -129.671     173.893
  O       77.202    -131.762     176.290
  O       78.874    -132.870     177.864
  H       78.791    -133.500     177.124
  H       81.233    -125.910     176.856
  H       79.988    -130.624     172.136
  H       80.536    -130.496     174.571
  H       82.489    -127.848     175.955
  H       79.448    -128.083     176.336
  H       79.896    -128.103     178.722
  H       82.169    -129.728     178.469
  H       80.977    -127.827     169.901
  H       80.635    -131.610     177.741
  H       80.714    -129.537     169.934
  H       80.158    -130.789     179.230
  P       81.528    -126.464     179.886
  C       82.222    -124.142     178.959
  O       82.512    -125.200     179.846
  O       82.181    -127.360     181.049
  O       80.092    -126.196     180.200
  H       81.743    -127.150     181.895
  H       83.027    -123.407     179.017
  H       81.284    -123.656     179.240
  H       82.156    -124.508     177.930
  H       76.194    -132.241     180.546
  H       77.760    -132.890     180.122
  H       76.349    -133.333     179.191

 3  4  5  6  7  8  9  10  11  12  13  24  27  28  29  30  32 0
 6-311+G(2d,p)
 ****
 34  35 0
 6-311+G(2d,p)
 ****
 1  2  14  15  16  17  18  19  20  21  22  23  25  26 0
 3-21G
 ****
 31  33  36  37  38  39  40  41  42  43  44  45  46 0
 3-21G
 ****


