%nproc=1
%NoSave
%Mem=1900MB
#P OB98/GEN NMR

erre ene a

0 1
  C      -98.796    -230.903    -139.537
  O      -98.313    -229.915    -140.461
  P      -97.459    -228.673    -139.907
  C      -96.413    -226.486    -140.895
  O      -97.201    -227.647    -141.114
  C      -95.550    -226.192    -142.125
  O      -94.512    -227.190    -142.264
  C      -96.310    -226.222    -143.444
  O      -97.079    -225.046    -143.642
  C      -95.169    -226.373    -144.444
  O      -94.571    -225.099    -144.738
  C      -94.185    -227.272    -143.672
  N      -94.199    -228.655    -144.138
  C      -93.315    -228.967    -145.168
  O      -92.589    -228.135    -145.711
  N      -93.312    -230.273    -145.574
  C      -94.138    -231.262    -145.115
  O      -94.102    -232.409    -145.534
  C      -95.108    -230.851    -144.087
  C      -95.096    -229.588    -143.658
  O      -96.007    -229.328    -139.715
  O      -97.942    -228.072    -138.628
  H      -95.185    -224.630    -145.333
  H      -95.528    -228.856    -139.006
  H      -92.658    -230.531    -146.297
  H      -95.796    -231.598    -143.714
  H      -95.806    -229.270    -142.898
  H      -93.163    -226.884    -143.765
  H      -95.501    -226.798    -145.398
  H      -96.944    -227.112    -143.490
  H      -95.067    -225.215    -141.979
  H      -95.760    -226.651    -140.031
  H      -97.075    -225.642    -140.678
  P      -98.675    -225.229    -143.679
  C     -100.526    -223.571    -142.865
  O      -99.271    -223.754    -143.486
  O      -98.932    -225.968    -142.281
  O      -99.151    -225.981    -144.878
  H      -98.307    -225.679    -141.594
  H     -100.705    -224.322    -142.095
  H     -101.316    -223.625    -143.621
  H     -100.548    -222.579    -142.403
  H      -99.341    -231.654    -140.070
  H      -99.439    -230.437    -138.820
  H      -97.968    -231.354    -139.032

 3  4  5  6  7  8  9  10  11  12  13  23  28  29  30  31  32 0
 6-311+G(2d,p)
 ****
 33  34 0
 6-311+G(2d,p)
 ****
 1  2  14  15  16  17  18  19  20  21  22  24  25  26 0
 3-21G
 ****
 27  35  36  37  38  39  40  41  42  43  44  45 0
 3-21G
 ****


