%nproc=1
%NoSave
%Mem=1900MB
#P OB98/GEN NMR

erre ene a

0 1
  C     -752.470     352.438     169.552
  O     -753.149     353.258     170.486
  H     -751.597     352.000     170.038
  H     -752.135     353.050     168.707
  H     -753.120     351.631     169.196
  P     -754.633     353.734     170.090
  C     -755.879     351.457     170.232
  O     -755.341     352.469     169.390
  C     -757.399     351.554     170.266
  O     -757.930     351.624     168.927
  C     -758.092     350.369     170.941
  O     -758.124     350.514     172.352
  C     -759.489     350.487     170.345
  O     -760.210     351.545     171.014
  C     -759.186     350.883     168.896
  N     -761.511     348.096     165.342
  C     -762.004     349.128     166.122
  N     -763.291     349.469     165.921
  N     -761.298     349.775     166.999
  C     -760.021     349.317     167.119
  C     -759.422     348.291     166.408
  C     -760.211     347.602     165.416
  O     -759.827     346.682     164.697
  N     -758.117     348.114     166.790
  C     -757.931     349.014     167.735
  N     -759.053     349.763     167.974
  O     -754.368     354.741     168.870
  O     -755.402     354.394     171.183
  H     -759.594     352.292     171.101
  H     -754.450     355.654     169.198
  H     -762.104     347.628     164.678
  H     -757.009     349.162     168.277
  H     -759.959     351.550     168.486
  H     -760.077     349.569     170.477
  H     -763.903     348.995     165.274
  H     -757.648     349.415     170.642
  H     -763.673     350.231     166.471
  H     -757.666     352.490     170.771
  H     -755.480     351.587     171.240
  H     -755.573     350.481     169.841
  P     -758.212     349.192     173.255
  C     -755.718     349.395     173.959
  O     -756.726     348.587     173.356
  O     -758.969     348.166     172.286
  O     -758.925     349.348     174.550
  H     -759.867     347.974     172.640
  H     -754.788     348.866     173.956
  H     -755.997     349.620     174.967
  H     -755.612     350.305     173.406

 6  7  8  9  10  11  12  13  14  15  26  29  33  34 0
 6-311+G(2d,p)
 ****
 36  38  39  40  41 0
 6-311+G(2d,p)
 ****
 1  2  3  4  5  16  17  18  19  20  21  22  23  24  25 0
 3-21G
 ****
 27  28  30  31  32  35  37  42  43  44  45  46  47 0
 3-21G
 ****
 48  49 0
 3-21G
 ****


