%nproc=1
%NoSave
%Mem=1900MB
#P OB98/GEN NMR

erre ene a

0 1
  C      -85.583    -178.348    -104.352
  O      -85.855    -177.251    -105.199
  H      -86.517    -178.881    -104.160
  H      -85.180    -177.995    -103.399
  H      -84.877    -179.038    -104.821
  P      -84.627    -176.405    -105.786
  C      -85.076    -174.521    -104.077
  O      -84.129    -175.436    -104.610
  C      -84.528    -173.848    -102.813
  O      -83.410    -172.988    -103.193
  C      -85.552    -172.960    -102.076
  O      -85.207    -172.991    -100.682
  C      -85.251    -171.605    -102.692
  O      -85.865    -170.548    -102.001
  C      -83.717    -171.667    -102.693
  N      -83.051    -170.647    -103.494
  C      -83.030    -169.348    -102.997
  O      -83.529    -168.996    -101.930
  N      -82.401    -168.420    -103.788
  C      -81.796    -168.662    -104.986
  O      -81.220    -167.797    -105.634
  C      -81.858    -170.052    -105.460
  C      -82.467    -170.968    -104.704
  O      -84.868    -175.736    -107.098
  O      -83.442    -177.479    -105.883
  H      -83.342    -177.774    -106.808
  H      -85.485    -170.493    -101.097
  H      -82.373    -167.472    -103.442
  H      -81.397    -170.277    -106.413
  H      -82.520    -172.003    -105.023
  H      -83.341    -171.617    -101.666
  H      -85.642    -171.564    -103.712
  H      -86.583    -173.298    -102.204
  H      -84.123    -174.620    -102.148
  H      -85.987    -175.077    -103.833
  H      -85.310    -173.765    -104.834
  P      -86.020    -173.838     -99.589
  C      -87.866    -172.035     -99.383
  O      -87.562    -173.395     -99.663
  O      -85.440    -173.766     -98.214
  O      -86.023    -175.343    -100.137
  H      -86.111    -175.962     -99.388
  H      -88.921    -171.881     -99.468
  H      -87.356    -171.405    -100.081
  H      -87.550    -171.796     -98.389

 6  7  8  9  10  11  12  13  14  15  16  27  31  32  33  34  35 0
 6-311+G(2d,p)
 ****
 36  37 0
 6-311+G(2d,p)
 ****
 1  2  3  4  5  17  18  19  20  21  22  23  24  25 0
 3-21G
 ****
 26  28  29  30  38  39  40  41  42  43  44  45 0
 3-21G
 ****


