%nproc=1
%NoSave
%Mem=1900MB
#P OB98/GEN NMR

erre ene a

0 1
  C     -485.992    -586.930    -626.224
  O     -485.808    -588.325    -626.358
  P     -486.440    -589.132    -627.589
  C     -484.144    -589.196    -628.736
  O     -485.519    -588.864    -628.876
  C     -483.671    -590.083    -629.881
  O     -484.378    -591.349    -629.840
  C     -483.875    -589.473    -631.275
  O     -482.727    -589.834    -632.069
  C     -485.118    -590.176    -631.784
  O     -485.213    -590.153    -633.192
  C     -484.928    -591.563    -631.156
  N     -486.173    -592.316    -631.089
  C     -486.583    -592.964    -632.248
  O     -485.969    -592.791    -633.312
  N     -487.677    -593.788    -632.195
  C     -488.418    -593.799    -631.119
  N     -489.451    -594.673    -631.082
  C     -488.151    -592.928    -629.957
  C     -487.005    -592.247    -629.994
  O     -487.895    -588.908    -627.812
  O     -486.137    -590.665    -627.247
  H     -486.977    -591.173    -627.288
  H     -484.398    -590.557    -633.572
  H     -488.858    -592.877    -629.145
  H     -486.717    -591.596    -629.169
  H     -484.199    -592.148    -631.732
  H     -486.004    -589.683    -631.373
  H     -483.959    -588.387    -631.252
  H     -482.606    -590.309    -629.718
  H     -489.579    -595.286    -631.877
  H     -484.023    -589.738    -627.789
  H     -489.867    -594.982    -630.203
  H     -483.541    -588.281    -628.680
  P     -482.256    -588.821    -633.220
  C     -480.493    -587.728    -631.664
  O     -481.598    -587.544    -632.519
  O     -483.659    -588.244    -633.742
  O     -481.510    -589.423    -634.363
  H     -483.562    -587.945    -634.668
  H     -480.229    -586.765    -631.225
  H     -479.637    -588.107    -632.224
  H     -480.747    -588.415    -630.851
  H     -485.493    -586.588    -625.341
  H     -487.037    -586.714    -626.150
  H     -485.585    -586.433    -627.079

 3  4  5  6  7  8  9  10  11  12  13  24  27  28  29  30  32 0
 6-311+G(2d,p)
 ****
 34  35 0
 6-311+G(2d,p)
 ****
 1  2  14  15  16  17  18  19  20  21  22  23  25  26 0
 3-21G
 ****
 31  33  36  37  38  39  40  41  42  43  44  45  46 0
 3-21G
 ****


