%nproc=1
%NoSave
%Mem=1900MB
#P OB98/GEN NMR

erre ene a

0 1
  C      459.853     306.734     175.574
  O      460.119     307.025     176.951
  P      458.935     307.678     177.819
  C      458.961     306.043     179.848
  O      459.208     307.363     179.368
  C      459.944     305.701     180.980
  O      461.243     305.350     180.438
  C      460.201     306.852     181.924
  O      459.117     306.996     182.839
  C      461.515     306.451     182.587
  O      461.293     305.665     183.768
  C      462.200     305.600     181.483
  N      463.396     306.249     180.951
  C      464.432     306.475     181.887
  O      464.282     306.158     183.067
  N      465.578     307.070     181.434
  C      465.690     307.443     180.190
  N      466.857     308.041     179.814
  C      464.608     307.246     179.192
  C      463.513     306.644     179.636
  O      457.672     306.757     177.471
  O      458.674     309.116     177.497
  H      460.706     306.200     184.346
  H      456.854     307.282     177.487
  H      464.745     307.578     178.179
  H      462.660     306.465     178.981
  H      462.497     304.614     181.878
  H      462.106     307.316     182.891
  H      460.342     307.786     181.357
  H      459.544     304.823     181.527
  H      467.570     308.160     180.525
  H      459.048     305.319     179.048
  H      467.038     308.366     178.883
  H      457.932     305.985     180.208
  P      459.027     308.351     183.684
  C      456.877     309.008     182.439
  O      457.447     308.720     183.688
  O      459.599     309.429     182.622
  O      459.736     308.404     184.982
  H      459.683     310.303     183.071
  H      455.779     309.030     182.565
  H      457.111     308.225     181.714
  H      457.204     309.982     182.072
  H      460.725     306.306     175.125
  H      459.595     307.637     175.062
  H      459.040     306.041     175.506

 3  4  5  6  7  8  9  10  11  12  13  21  23  27  28  29  30  32 0
 6-311+G(2d,p)
 ****
 34  35 0
 6-311+G(2d,p)
 ****
 1  2  14  15  16  17  18  19  20  22  24  25  26 0
 3-21G
 ****
 31  33  36  37  38  39  40  41  42  43  44  45  46 0
 3-21G
 ****


