%nproc=1
%NoSave
%Mem=1900MB
#P OB98/GEN NMR

erre ene a

0 1
  C      150.672    -563.662    -274.882
  O      149.426    -563.516    -274.231
  H      150.880    -562.751    -275.452
  H      150.650    -564.502    -275.582
  H      151.465    -563.807    -274.148
  P      148.814    -564.777    -273.459
  C      150.091    -564.194    -271.286
  O      148.824    -564.381    -271.908
  C      149.910    -563.695    -269.861
  O      149.444    -562.324    -269.858
  C      148.869    -564.484    -269.067
  O      149.390    -565.728    -268.666
  C      148.554    -563.511    -267.948
  O      149.553    -563.546    -266.926
  C      148.587    -562.152    -268.710
  N      147.249    -561.699    -269.095
  C      146.635    -560.799    -268.239
  O      147.203    -560.409    -267.215
  N      145.370    -560.354    -268.552
  C      144.786    -560.759    -269.629
  N      143.526    -560.301    -269.878
  C      145.404    -561.717    -270.579
  C      146.631    -562.141    -270.249
  O      149.428    -566.113    -273.767
  O      147.254    -564.734    -273.837
  H      149.503    -562.679    -266.485
  H      147.091    -565.245    -274.652
  H      144.888    -562.033    -271.467
  H      147.170    -562.839    -270.889
  H      149.048    -561.378    -268.082
  H      147.592    -563.735    -267.495
  H      147.963    -564.623    -269.674
  H      150.885    -563.720    -269.350
  H      143.139    -559.663    -269.203
  H      150.637    -563.451    -271.885
  H      143.028    -560.486    -270.730
  H      150.669    -565.129    -271.284
  P      148.435    -567.025    -268.570
  C      149.546    -568.085    -270.655
  O      149.265    -568.215    -269.251
  O      147.052    -566.820    -269.070
  O      148.507    -567.408    -266.998
  H      147.962    -566.760    -266.455
  H      150.101    -568.937    -270.988
  H      150.119    -567.197    -270.823
  H      148.626    -568.024    -271.199

 6  7  8  9  10  11  12  13  14  15  16  26  30  31  32  33  35 0
 6-311+G(2d,p)
 ****
 37  38 0
 6-311+G(2d,p)
 ****
 1  2  3  4  5  17  18  19  20  21  22  23  24  25 0
 3-21G
 ****
 27  28  29  34  36  39  40  41  42  43  44  45  46 0
 3-21G
 ****


