%nproc=1
%NoSave
%Mem=1900MB
#P OB98/GEN NMR

erre ene a

0 1
  C     -760.333     414.772     365.344
  O     -761.161     414.289     364.303
  H     -759.467     415.272     364.903
  H     -759.983     413.942     365.964
  H     -760.881     415.493     365.960
  P     -762.461     413.465     364.755
  C     -762.933     411.544     366.431
  O     -761.953     412.341     365.781
  C     -762.338     410.202     366.850
  O     -762.055     409.386     365.691
  C     -761.041     410.305     367.642
  O     -761.303     410.536     369.014
  C     -760.428     408.935     367.383
  O     -761.018     407.933     368.237
  C     -760.800     408.689     365.916
  N     -756.293     407.667     363.877
  C     -756.968     407.042     364.901
  N     -756.341     405.995     365.496
  N     -758.153     407.401     365.320
  C     -758.634     408.493     364.680
  C     -758.063     409.205     363.651
  C     -756.774     408.757     363.160
  O     -756.162     409.220     362.200
  N     -758.873     410.239     363.247
  C     -759.914     410.168     364.060
  N     -759.812     409.130     364.944
  O     -762.842     412.623     363.446
  O     -763.615     414.288     365.216
  H     -760.742     407.050     367.934
  H     -763.815     412.581     363.368
  H     -755.398     407.327     363.576
  H     -760.763     410.839     364.033
  H     -760.982     407.627     365.711
  H     -759.360     408.928     367.602
  H     -755.344     405.864     365.418
  H     -760.387     411.082     367.226
  H     -756.807     405.586     366.296
  H     -763.103     409.671     367.431
  H     -763.767     411.377     365.744
  H     -763.301     412.074     367.313
  P     -760.337     411.541     369.809
  C     -758.834     411.150     371.888
  O     -759.278     410.652     370.636
  O     -761.299     412.129     370.950
  O     -759.753     412.633     368.983
  H     -761.547     413.048     370.726
  H     -758.139     410.460     372.320
  H     -759.672     411.269     372.542
  H     -758.356     412.097     371.746

 6  7  8  9  10  11  12  13  14  15  26  29  33  34 0
 6-311+G(2d,p)
 ****
 36  38  39  40  41 0
 6-311+G(2d,p)
 ****
 1  2  3  4  5  16  17  18  19  20  21  22  23  24  25 0
 3-21G
 ****
 27  28  30  31  32  35  37  42  43  44  45  46  47 0
 3-21G
 ****
 48  49 0
 3-21G
 ****


