%nproc=1
%NoSave
%Mem=1900MB
#P OB98/GEN NMR

erre ene a

0 1
  C      794.051    -625.940    -570.617
  O      794.344    -626.302    -569.289
  H      794.593    -626.610    -571.292
  H      794.372    -624.917    -570.813
  H      792.975    -626.039    -570.818
  P      793.500    -625.567    -568.138
  C      792.851    -623.111    -567.588
  O      793.541    -623.999    -568.459
  C      793.597    -621.784    -567.471
  O      793.644    -621.134    -568.757
  C      792.948    -620.786    -566.506
  O      793.310    -621.047    -565.160
  C      793.562    -619.483    -567.011
  O      794.923    -619.380    -566.542
  C      793.542    -619.693    -568.526
  N      791.447    -615.802    -571.031
  C      792.729    -615.940    -570.520
  N      793.567    -614.887    -570.678
  N      793.144    -617.018    -569.880
  C      792.201    -617.979    -569.795
  C      790.901    -617.958    -570.274
  C      790.453    -616.769    -570.969
  O      789.353    -616.598    -571.465
  N      790.243    -619.135    -570.005
  C      791.128    -619.843    -569.329
  N      792.329    -619.198    -569.172
  O      794.433    -625.708    -566.836
  O      792.137    -626.134    -567.892
  H      794.890    -619.363    -565.577
  H      793.865    -625.834    -566.055
  H      791.183    -614.954    -571.494
  H      790.957    -620.843    -568.956
  H      794.381    -619.211    -569.034
  H      793.026    -618.606    -566.649
  H      793.287    -614.027    -571.093
  H      791.857    -620.756    -566.626
  H      794.522    -614.984    -570.315
  H      794.628    -622.000    -567.169
  H      792.768    -623.575    -566.592
  H      791.840    -622.954    -567.989
  P      792.817    -620.012    -564.038
  C      792.971    -617.420    -563.816
  O      793.447    -618.594    -564.464
  O      793.676    -620.421    -562.757
  O      791.357    -620.007    -563.777
  H      793.217    -620.119    -561.940
  H      793.483    -616.565    -564.206
  H      793.151    -617.495    -562.764
  H      791.920    -617.317    -563.991

 6  7  8  9  10  11  12  13  14  15  26  29  33  34 0
 6-311+G(2d,p)
 ****
 36  38  39  40  41 0
 6-311+G(2d,p)
 ****
 1  2  3  4  5  16  17  18  19  20  21  22  23  24  25 0
 3-21G
 ****
 27  28  30  31  32  35  37  42  43  44  45  46  47 0
 3-21G
 ****
 48  49 0
 3-21G
 ****


