%nproc=1
%NoSave
%Mem=1900MB
#P OB98/GEN NMR

erre ene a

0 1
  C     -575.745    -437.933     318.911
  O     -576.382    -438.783     317.955
  P     -576.487    -440.371     318.139
  C     -574.418    -441.512     317.099
  O     -575.016    -440.999     318.294
  C     -572.921    -441.770     317.289
  O     -572.196    -440.532     317.410
  C     -572.555    -442.567     318.536
  O     -572.847    -443.955     318.373
  C     -571.079    -442.246     318.681
  O     -570.282    -443.077     317.825
  C     -571.026    -440.770     318.229
  N     -570.945    -439.834     319.341
  C     -569.706    -439.736     319.978
  O     -568.768    -440.448     319.635
  N     -569.577    -438.841     321.018
  C     -570.606    -438.167     321.423
  N     -570.409    -437.287     322.458
  C     -571.954    -438.306     320.842
  C     -572.050    -439.157     319.812
  O     -577.325    -441.052     317.109
  O     -577.129    -440.578     319.603
  H     -569.357    -442.767     317.919
  H     -577.663    -441.407     319.612
  H     -572.793    -437.754     321.229
  H     -573.008    -439.331     319.319
  H     -570.166    -440.605     317.558
  H     -570.701    -442.391     319.705
  H     -573.107    -442.169     319.404
  H     -572.553    -442.277     316.384
  H     -569.473    -437.209     322.828
  H     -574.552    -440.772     316.302
  H     -571.153    -436.710     322.847
  H     -574.933    -442.436     316.822
  P     -574.167    -444.569     319.031
  C     -573.481    -446.328     320.785
  O     -573.816    -444.962     320.556
  O     -574.837    -445.646     318.227
  O     -575.141    -443.302     319.214
  H     -576.067    -443.593     319.124
  H     -572.885    -446.365     321.700
  H     -572.889    -446.728     319.960
  H     -574.394    -446.901     320.899
  H     -575.797    -436.918     318.577
  H     -574.720    -438.221     319.017
  H     -576.241    -438.024     319.855

 3  4  5  6  7  8  9  10  11  12  13  23  27  28  29  30  32 0
 6-311+G(2d,p)
 ****
 34  35 0
 6-311+G(2d,p)
 ****
 1  2  14  15  16  17  18  19  20  21  22  24  25  26 0
 3-21G
 ****
 31  33  36  37  38  39  40  41  42  43  44  45  46 0
 3-21G
 ****


