%nproc=1
%NoSave
%Mem=1900MB
#P OB98/GEN NMR

erre ene a

0 1
  C      535.465    -267.372      69.144
  O      534.678    -267.903      70.194
  H      534.848    -267.291      68.247
  H      536.304    -268.040      68.934
  H      535.836    -266.377      69.410
  P      535.361    -267.999      71.642
  C      533.665    -266.565      73.006
  O      534.171    -267.860      72.713
  C      532.493    -266.679      73.982
  O      531.320    -267.129      73.248
  C      532.741    -267.680      75.119
  O      532.143    -267.181      76.320
  C      532.003    -268.925      74.653
  O      531.629    -269.795      75.712
  C      530.804    -268.298      73.926
  N      530.179    -269.212      72.977
  C      529.431    -270.265      73.494
  O      529.195    -270.437      74.690
  N      528.938    -271.155      72.571
  C      529.142    -271.108      71.220
  O      528.695    -271.948      70.448
  C      529.949    -269.974      70.733
  C      530.420    -269.101      71.621
  O      536.140    -266.609      71.778
  O      536.252    -269.178      71.858
  H      537.051    -266.691      71.439
  H      531.266    -270.615      75.314
  H      528.390    -271.922      72.936
  H      530.134    -269.920      69.672
  H      531.037    -268.264      71.292
  H      530.061    -267.950      74.650
  H      532.624    -269.484      73.947
  H      533.801    -267.876      75.287
  H      532.264    -265.684      74.373
  H      533.320    -266.097      72.076
  H      534.462    -265.953      73.436
  P      533.130    -266.657      77.475
  C      532.367    -264.160      77.247
  O      532.449    -265.323      78.063
  O      534.368    -266.134      76.617
  O      533.451    -267.710      78.484
  H      534.112    -265.708      75.776
  H      531.889    -263.374      77.793
  H      531.798    -264.381      76.368
  H      533.352    -263.851      76.966

 6  7  8  9  10  11  12  13  14  15  16  27  31  32  33  34  35 0
 6-311+G(2d,p)
 ****
 36  37 0
 6-311+G(2d,p)
 ****
 1  2  3  4  5  17  18  19  20  21  22  23  24  25 0
 3-21G
 ****
 26  28  29  30  38  39  40  41  42  43  44  45 0
 3-21G
 ****


