%nproc=1
%NoSave
%Mem=1900MB
#P OB98/GEN NMR

erre ene a

0 1
  C      157.709     189.021    -116.234
  O      156.973     188.253    -117.163
  H      157.008     189.570    -115.601
  H      158.337     189.740    -116.765
  H      158.329     188.385    -115.597
  P      157.735     187.134    -118.018
  C      158.985     184.981    -117.342
  O      157.910     185.864    -117.051
  C      158.697     183.578    -116.801
  O      158.451     183.669    -115.367
  C      157.473     182.902    -117.435
  O      157.716     181.490    -117.438
  C      156.381     183.248    -116.441
  O      155.255     182.414    -116.597
  C      157.145     183.115    -115.121
  N      156.463     183.780    -114.012
  C      155.442     183.072    -113.393
  O      155.082     181.951    -113.757
  N      154.807     183.707    -112.362
  C      155.050     184.981    -111.942
  O      154.428     185.514    -111.031
  C      156.112     185.702    -112.663
  C      156.763     185.078    -113.647
  O      158.987     187.578    -118.697
  O      156.638     186.622    -119.066
  H      154.575     182.631    -115.924
  H      157.072     186.329    -119.889
  H      154.071     183.202    -111.896
  H      156.322     186.718    -112.360
  H      157.551     185.580    -114.196
  H      157.272     182.059    -114.853
  H      156.043     184.281    -116.583
  H      157.261     183.257    -118.446
  H      159.597     182.963    -116.929
  H      159.888     185.383    -116.873
  H      159.137     184.937    -118.425
  P      157.975     180.672    -118.792
  C      159.826     180.555    -120.581
  O      159.508     180.868    -119.227
  O      156.990     180.955    -119.879
  O      157.910     179.132    -118.357
  H      157.619     178.589    -119.112
  H      160.869     180.724    -120.751
  H      159.253     181.178    -121.235
  H      159.595     179.528    -120.773

 6  7  8  9  10  11  12  13  14  15  16  26  31  32  33  34  35 0
 6-311+G(2d,p)
 ****
 36  37 0
 6-311+G(2d,p)
 ****
 1  2  3  4  5  17  18  19  20  21  22  23  24  25 0
 3-21G
 ****
 27  28  29  30  38  39  40  41  42  43  44  45 0
 3-21G
 ****


