%nproc=1
%NoSave
%Mem=1900MB
#P OB98/GEN NMR

erre ene a

0 1
  C       59.242    -371.382     111.797
  O       60.493    -371.683     112.378
  P       61.625    -372.528     111.638
  C       61.510    -374.458     113.379
  O       62.323    -373.490     112.729
  C       62.270    -375.755     113.719
  O       62.534    -376.492     112.509
  C       63.648    -375.408     114.316
  O       63.770    -375.105     115.692
  C       64.587    -376.505     113.809
  O       64.789    -377.537     114.781
  C       63.854    -377.055     112.583
  N       68.170    -377.528     109.961
  C       67.778    -378.184     111.120
  N       68.732    -378.903     111.742
  N       66.565    -378.109     111.613
  C       65.749    -377.271     110.924
  C       66.025    -376.589     109.762
  C       67.350    -376.712     109.199
  O       67.762    -376.083     108.227
  N       64.979    -375.777     109.391
  C       64.091    -375.943     110.346
  N       64.529    -376.807     111.323
  O       62.494    -371.794     110.664
  O       60.732    -373.576     110.796
  H       65.068    -378.335     114.312
  H       61.202    -373.751     109.954
  H       69.142    -377.565     109.666
  H       63.135    -375.434     110.405
  H       63.724    -378.140     112.667
  H       65.576    -376.091     113.581
  H       69.704    -378.865     111.474
  H       63.989    -374.494     113.813
  H       68.531    -379.249     112.676
  H       61.674    -376.410     114.351
  H       60.660    -374.679     112.722
  H       61.103    -374.034     114.305
  P       63.811    -373.643     116.342
  C       65.954    -373.449     117.730
  O       64.568    -373.736     117.751
  O       62.290    -373.366     116.772
  O       64.298    -372.560     115.433
  H       62.140    -372.401     116.852
  H       66.416    -373.826     118.645
  H       66.098    -372.360     117.683
  H       66.441    -373.911     116.858
  H       58.658    -370.807     112.485
  H       58.728    -372.292     111.566
  H       59.392    -370.819     110.900

 3  4  5  6  7  8  9  10  11  12  23  26  30  31 0
 6-311+G(2d,p)
 ****
 33  35  36  37  38 0
 6-311+G(2d,p)
 ****
 1  2  13  14  15  16  17  18  19  20  21  22  24  25 0
 3-21G
 ****
 27  28  29  32  34  39  40  41  42  43  44  45  46  47  48  49 0
 3-21G
 ****


