%nproc=1
%NoSave
%Mem=1900MB
#P OB98/GEN NMR

erre ene a

0 1
  C       65.062     -18.080     -39.941
  O       65.018     -18.544     -38.606
  H       65.627     -17.145     -39.968
  H       64.052     -17.888     -40.313
  H       65.562     -18.809     -40.584
  P       64.235     -19.908     -38.304
  C       62.873     -18.843     -36.387
  O       62.832     -19.476     -37.659
  C       61.467     -18.443     -35.957
  O       60.989     -17.345     -36.756
  C       60.435     -19.562     -36.094
  O       60.514     -20.447     -34.989
  C       59.152     -18.750     -36.121
  O       58.822     -18.317     -34.787
  C       59.567     -17.545     -36.983
  N       56.220     -17.120     -40.766
  C       56.059     -16.908     -39.411
  N       54.814     -16.578     -39.003
  N       57.022     -17.030     -38.535
  C       58.191     -17.435     -39.082
  C       58.470     -17.692     -40.404
  C       57.410     -17.499     -41.371
  O       57.516     -17.659     -42.583
  N       59.753     -18.146     -40.569
  C       60.261     -18.126     -39.353
  N       59.348     -17.716     -38.411
  O       64.976     -20.937     -37.504
  O       63.825     -20.451     -39.750
  H       59.569     -17.772     -34.479
  H       64.497     -21.064     -40.101
  H       55.434     -17.028     -41.388
  H       61.279     -18.395     -39.100
  H       59.053     -16.624     -36.686
  H       58.298     -19.308     -36.503
  H       54.000     -16.750     -39.579
  H       60.533     -20.089     -37.048
  H       54.664     -16.468     -38.009
  H       61.522     -18.087     -34.920
  H       63.512     -17.959     -36.479
  H       63.309     -19.515     -35.641
  P       59.815     -21.893     -35.035
  C       58.679     -21.479     -32.751
  O       58.497     -21.744     -34.135
  O       60.702     -23.029     -34.656
  O       59.217     -22.003     -36.510
  H       59.854     -22.375     -37.168
  H       57.724     -21.404     -32.274
  H       59.211     -20.558     -32.631
  H       59.239     -22.275     -32.306

 6  7  8  9  10  11  12  13  14  15  26  29  33  34 0
 6-311+G(2d,p)
 ****
 36  38  39  40  41 0
 6-311+G(2d,p)
 ****
 1  2  3  4  5  16  17  18  19  20  21  22  23  24  25 0
 3-21G
 ****
 27  28  30  31  32  35  37  42  43  44  45  46  47 0
 3-21G
 ****
 48  49 0
 3-21G
 ****


