%nproc=1
%NoSave
%Mem=1900MB
#P OB98/GEN NMR

erre ene a

0 1
  C      -36.379     -58.426      46.653
  O      -36.514     -57.299      47.488
  P      -36.077     -55.825      47.066
  C      -33.850     -54.733      46.230
  O      -34.477     -55.774      46.972
  C      -32.338     -54.973      46.110
  O      -32.123     -56.182      45.338
  C      -31.641     -53.829      45.355
  O      -30.396     -53.436      45.918
  C      -31.630     -54.330      43.915
  O      -30.665     -53.685      43.097
  C      -31.445     -55.833      44.112
  N      -30.389     -58.324      39.806
  C      -29.519     -57.797      40.742
  N      -28.214     -57.773      40.395
  N      -29.907     -57.306      41.893
  C      -31.251     -57.293      42.054
  C      -32.209     -57.790      41.198
  C      -31.767     -58.356      39.946
  O      -32.509     -58.732      39.037
  N      -33.479     -57.542      41.656
  C      -33.291     -56.866      42.774
  N      -31.954     -56.662      43.038
  O      -36.778     -54.695      47.748
  O      -36.503     -55.793      45.506
  H      -29.789     -54.040      43.340
  H      -36.788     -54.879      45.305
  H      -30.036     -58.612      38.901
  H      -34.079     -56.478      43.409
  H      -30.393     -56.094      44.223
  H      -32.613     -54.108      43.483
  H      -27.908     -58.007      39.459
  H      -32.242     -52.913      45.408
  H      -27.601     -57.175      40.943
  H      -31.920     -55.134      47.110
  H      -34.042     -53.804      46.780
  H      -34.306     -54.638      45.241
  P      -29.756     -51.974      46.012
  C      -28.421     -50.368      44.521
  O      -29.055     -51.630      44.612
  O      -28.511     -52.129      47.004
  O      -30.686     -50.918      46.513
  H      -28.452     -51.345      47.584
  H      -28.233     -50.144      43.465
  H      -27.465     -50.397      45.052
  H      -29.053     -49.583      44.944
  H      -36.742     -59.294      47.163
  H      -35.347     -58.564      46.404
  H      -36.945     -58.276      45.757

 3  4  5  6  7  8  9  10  11  12  23  26  30  31 0
 6-311+G(2d,p)
 ****
 33  35  36  37  38 0
 6-311+G(2d,p)
 ****
 1  2  13  14  15  16  17  18  19  20  21  22  24  25 0
 3-21G
 ****
 27  28  29  32  34  39  40  41  42  43  44  45  46  47  48  49 0
 3-21G
 ****


