%nproc=1
%NoSave
%Mem=1900MB
#P OB98/GEN NMR

erre ene a

0 1
  C      189.841    -148.722     109.481
  O      191.248    -148.709     109.536
  H      189.506    -149.764     109.435
  H      189.481    -148.203     108.591
  H      189.419    -148.262     110.380
  P      192.018    -147.302     109.422
  C      192.851    -147.774     107.041
  O      192.011    -146.955     107.846
  C      192.606    -147.536     105.551
  O      193.657    -148.171     104.774
  C      191.261    -148.077     105.045
  O      190.621    -147.090     104.238
  C      191.659    -149.278     104.191
  O      190.673    -149.593     103.212
  C      193.021    -148.817     103.656
  N      193.830    -149.920     103.140
  C      193.512    -150.378     101.857
  O      192.567    -149.880     101.237
  N      194.242    -151.409     101.320
  C      195.174    -151.970     102.025
  N      195.854    -152.993     101.445
  C      195.511    -151.550     103.397
  C      194.813    -150.526     103.887
  O      193.365    -147.273     110.065
  O      190.996    -146.232     110.028
  H      190.418    -148.769     102.748
  H      191.490    -145.416     110.288
  H      196.294    -152.056     103.951
  H      195.001    -150.142     104.887
  H      192.897    -148.080     102.855
  H      191.794    -150.159     104.834
  H      190.588    -148.370     105.844
  H      192.697    -146.455     105.356
  H      195.593    -153.254     100.497
  H      192.663    -148.825     107.291
  H      196.594    -153.509     101.897
  H      193.896    -147.531     107.275
  P      189.356    -146.349     104.904
  C      187.481    -147.514     103.546
  O      188.099    -147.349     104.814
  O      189.012    -145.197     103.849
  O      189.634    -145.794     106.265
  H      189.367    -144.338     104.155
  H      186.666    -148.201     103.633
  H      188.196    -147.896     102.848
  H      187.115    -146.569     103.202

 6  7  8  9  10  11  12  13  14  15  16  26  30  31  32  33  35 0
 6-311+G(2d,p)
 ****
 37  38 0
 6-311+G(2d,p)
 ****
 1  2  3  4  5  17  18  19  20  21  22  23  24  25 0
 3-21G
 ****
 27  28  29  34  36  39  40  41  42  43  44  45  46 0
 3-21G
 ****


