%nproc=1
%NoSave
%Mem=1900MB
#P OB98/GEN NMR

erre ene a

0 1
  C     -399.048     426.638     293.587
  O     -398.317     425.511     294.084
  P     -399.044     424.090     294.144
  C     -400.123     422.563     295.934
  O     -399.630     423.862     295.631
  C     -400.413     422.422     297.437
  O     -399.172     422.470     298.214
  C     -401.308     423.557     297.970
  O     -402.155     423.071     299.025
  C     -400.307     424.525     298.580
  O     -400.929     425.390     299.529
  C     -399.288     423.550     299.163
  N     -396.488     426.349     302.423
  C     -397.743     425.833     302.523
  N     -398.414     425.082     301.621
  C     -397.649     424.853     300.536
  C     -396.364     425.295     300.291
  C     -395.772     426.091     301.304
  N     -394.507     426.640     301.193
  N     -395.907     424.864     299.066
  C     -396.934     424.208     298.540
  N     -397.995     424.148     299.409
  O     -398.261     422.935     293.596
  O     -400.378     424.323     293.276
  H     -400.211     425.848     300.020
  H     -400.540     423.547     292.716
  H     -398.271     426.082     303.442
  H     -396.955     423.783     297.552
  H     -399.636     423.111     300.107
  H     -399.869     425.137     297.794
  H     -401.933     424.033     297.210
  H     -400.864     421.446     297.627
  H     -399.378     421.811     295.632
  H     -394.219     427.284     301.905
  H     -394.022     426.577     300.299
  H     -401.015     422.363     295.328
  P     -403.734     423.368     298.859
  C     -405.166     425.557     298.792
  O     -403.893     424.956     298.889
  O     -404.592     422.586     299.805
  O     -403.973     422.985     297.316
  H     -403.347     423.387     296.686
  H     -405.066     426.633     298.966
  H     -405.840     425.139     299.539
  H     -405.572     425.400     297.789
  H     -398.424     427.507     293.612
  H     -399.911     426.801     294.198
  H     -399.355     426.448     292.580

 3  4  5  6  7  8  9  10  11  12  22  25  29  30  31  32 0
 6-311+G(2d,p)
 ****
 33  36  37 0
 6-311+G(2d,p)
 ****
 1  2  13  14  15  16  17  18  19  20  21  23  24  26 0
 3-21G
 ****
 27  28  34  35  38  39  40  41  42  43  44  45  46  47  48 0
 3-21G
 ****


