%nproc=1
%NoSave
%Mem=1900MB
#P OB98/GEN NMR

erre ene a

0 1
  C     -918.299    -341.544    -102.056
  O     -917.959    -341.809    -103.396
  H     -919.077    -340.769    -102.047
  H     -917.432    -341.164    -101.507
  H     -918.695    -342.441    -101.574
  P     -916.700    -342.769    -103.704
  C     -915.033    -340.990    -102.907
  O     -915.552    -342.296    -102.677
  C     -914.104    -340.538    -101.770
  O     -912.876    -341.317    -101.815
  C     -913.720    -339.062    -101.840
  O     -913.857    -338.470    -100.532
  C     -912.246    -339.087    -102.247
  O     -911.560    -337.908    -101.844
  C     -911.797    -340.402    -101.600
  N     -910.541    -340.895    -102.160
  C     -909.358    -340.518    -101.519
  O     -909.403    -339.749    -100.545
  N     -908.155    -340.952    -101.998
  C     -908.127    -341.694    -103.078
  N     -906.892    -342.087    -103.511
  C     -909.335    -342.086    -103.815
  C     -910.505    -341.676    -103.305
  O     -916.283    -342.815    -105.136
  O     -917.138    -344.203    -103.120
  H     -910.593    -338.042    -101.991
  H     -916.585    -344.904    -103.546
  H     -909.261    -342.704    -104.706
  H     -911.448    -341.927    -103.780
  H     -911.651    -340.284    -100.517
  H     -912.179    -339.158    -103.336
  H     -914.318    -338.478    -102.546
  H     -914.591    -340.799    -100.817
  H     -906.097    -341.795    -102.964
  H     -915.874    -340.291    -103.009
  H     -906.744    -342.654    -104.338
  H     -914.467    -341.000    -103.844
  P     -915.054    -337.416    -100.359
  C     -913.971    -335.227     -99.492
  O     -914.468    -335.941    -100.614
  O     -915.361    -337.456     -98.785
  O     -916.275    -337.755    -101.165
  H     -916.135    -338.017     -98.604
  H     -913.616    -334.268     -99.808
  H     -913.168    -335.776     -99.047
  H     -914.755    -335.098     -98.775

 6  7  8  9  10  11  12  13  14  15  16  26  30  31  32  33  35 0
 6-311+G(2d,p)
 ****
 37  38 0
 6-311+G(2d,p)
 ****
 1  2  3  4  5  17  18  19  20  21  22  23  24  25 0
 3-21G
 ****
 27  28  29  34  36  39  40  41  42  43  44  45  46 0
 3-21G
 ****


