%nproc=1
%NoSave
%Mem=1900MB
#P OB98/GEN NMR

erre ene a

0 1
  C     -880.560     -59.262    -503.486
  O     -879.719     -58.158    -503.251
  H     -880.413     -59.615    -504.513
  H     -881.612     -58.991    -503.366
  H     -880.315     -60.081    -502.800
  P     -879.866     -57.372    -501.864
  C     -882.021     -55.979    -502.197
  O     -880.605     -55.995    -502.225
  C     -882.528     -54.555    -502.435
  O     -882.047     -53.671    -501.403
  C     -882.045     -53.960    -503.748
  O     -882.759     -54.501    -504.845
  C     -882.256     -52.476    -503.495
  O     -883.629     -52.105    -503.681
  C     -881.849     -52.367    -502.009
  N     -880.473     -51.904    -501.824
  C     -880.176     -51.369    -500.568
  O     -881.038     -51.314    -499.693
  N     -878.902     -50.891    -500.351
  C     -878.009     -50.950    -501.294
  N     -876.778     -50.461    -501.016
  C     -878.289     -51.523    -502.629
  C     -879.535     -51.981    -502.822
  O     -878.625     -57.215    -501.036
  O     -881.006     -58.191    -501.088
  H     -883.680     -51.158    -503.462
  H     -880.603     -58.906    -500.550
  H     -877.517     -51.568    -503.377
  H     -879.817     -52.412    -503.772
  H     -882.531     -51.671    -501.476
  H     -881.653     -51.866    -504.162
  H     -880.969     -54.127    -503.870
  H     -883.624     -54.563    -502.389
  H     -876.635     -50.066    -500.094
  H     -882.330     -56.320    -501.209
  H     -875.988     -50.533    -501.633
  H     -882.434     -56.657    -502.947
  P     -882.002     -55.362    -505.965
  C     -880.731     -53.538    -507.257
  O     -881.856     -54.394    -507.232
  O     -882.609     -56.704    -506.247
  O     -880.505     -55.446    -505.405
  H     -880.439     -56.073    -504.647
  H     -880.751     -52.948    -508.149
  H     -879.836     -54.124    -507.237
  H     -880.754     -52.894    -506.403

 6  7  8  9  10  11  12  13  14  15  16  26  30  31  32  33  35 0
 6-311+G(2d,p)
 ****
 37  38 0
 6-311+G(2d,p)
 ****
 1  2  3  4  5  17  18  19  20  21  22  23  24  25 0
 3-21G
 ****
 27  28  29  34  36  39  40  41  42  43  44  45  46 0
 3-21G
 ****


