%nproc=1
%NoSave
%Mem=1900MB
#P OB98/GEN NMR

erre ene a

0 1
  C      126.651     -60.461     -20.934
  O      127.217     -59.331     -21.566
  H      127.414     -61.240     -20.859
  H      125.808     -60.851     -21.512
  H      126.319     -60.200     -19.924
  P      126.232     -58.149     -22.025
  C      127.617     -56.153     -21.147
  O      126.459     -56.964     -20.961
  C      128.653     -56.416     -20.051
  O      128.957     -57.824     -19.984
  C      129.988     -55.732     -20.292
  O      129.947     -54.325     -20.168
  C      130.933     -56.537     -19.411
  O      130.975     -56.083     -18.061
  C      130.298     -57.948     -19.468
  N      131.101     -58.877     -20.255
  C      132.392     -59.104     -19.793
  O      132.864     -58.555     -18.797
  N      133.152     -59.962     -20.538
  C      132.769     -60.559     -21.705
  O      133.512     -61.289     -22.352
  C      131.401     -60.261     -22.159
  C      130.639     -59.445     -21.425
  O      124.794     -58.533     -22.206
  O      126.916     -57.578     -23.353
  H      131.355     -55.184     -18.073
  H      126.280     -57.032     -23.875
  H      134.087     -60.147     -20.213
  H      131.063     -60.716     -23.081
  H      129.626     -59.209     -21.739
  H      130.204     -58.362     -18.456
  H      131.957     -56.507     -19.790
  H      130.290     -55.933     -21.326
  H      128.222     -56.116     -19.089
  H      127.300     -55.106     -21.097
  H      128.047     -56.345     -22.135
  P      129.805     -53.339     -21.417
  C      128.149     -51.720     -20.239
  O      128.372     -52.613     -21.324
  O      130.259     -53.862     -22.741
  O      130.814     -52.151     -20.996
  H      131.220     -51.808     -21.815
  H      127.161     -51.316     -20.307
  H      128.863     -50.924     -20.279
  H      128.255     -52.248     -19.315

 6  7  8  9  10  11  12  13  14  15  16  26  31  32  33  34  35 0
 6-311+G(2d,p)
 ****
 36  37 0
 6-311+G(2d,p)
 ****
 1  2  3  4  5  17  18  19  20  21  22  23  24  25 0
 3-21G
 ****
 27  28  29  30  38  39  40  41  42  43  44  45 0
 3-21G
 ****


