%nproc=1
%NoSave
%Mem=1900MB
#P OB98/GEN NMR

erre ene a

0 1
  C       24.923     -55.392      53.807
  O       23.818     -55.253      54.676
  H       25.360     -54.404      53.633
  H       24.594     -55.803      52.850
  H       25.684     -56.041      54.249
  P       23.157     -56.608      55.223
  C       21.827     -58.530      54.094
  O       22.767     -57.479      53.932
  C       20.587     -58.265      53.246
  O       20.940     -58.198      51.846
  C       19.508     -59.336      53.361
  O       18.693     -59.143      54.509
  C       18.726     -59.083      52.083
  O       17.883     -57.924      52.251
  C       19.848     -58.782      51.082
  N       18.688     -62.386      47.712
  C       17.915     -61.354      48.209
  N       16.648     -61.276      47.750
  N       18.342     -60.479      49.082
  C       19.626     -60.686      49.460
  C       20.493     -61.670      49.038
  C       20.011     -62.625      48.067
  O       20.660     -63.544      47.575
  N       21.717     -61.550      49.638
  C       21.589     -60.510      50.437
  N       20.336     -59.954      50.372
  O       21.734     -56.127      55.785
  O       23.939     -57.325      56.270
  H       17.344     -57.850      51.442
  H       21.515     -56.653      56.578
  H       18.307     -63.038      47.049
  H       22.367     -60.120      51.077
  H       19.547     -58.050      50.325
  H       18.075     -59.916      51.815
  H       16.242     -61.946      47.116
  H       19.937     -60.345      53.333
  H       16.073     -60.509      48.074
  H       20.188     -57.282      53.530
  H       21.538     -58.594      55.148
  H       22.294     -59.474      53.794
  P       17.938     -60.428      55.110
  C       16.371     -62.199      54.035
  O       16.880     -60.870      53.989
  O       17.018     -59.801      56.260
  O       18.834     -61.500      55.628
  H       16.799     -60.484      56.922
  H       15.681     -62.345      53.230
  H       15.870     -62.357      54.967
  H       17.179     -62.894      53.943

 6  7  8  9  10  11  12  13  14  15  26  29  33  34 0
 6-311+G(2d,p)
 ****
 36  38  39  40  41 0
 6-311+G(2d,p)
 ****
 1  2  3  4  5  16  17  18  19  20  21  22  23  24  25 0
 3-21G
 ****
 27  28  30  31  32  35  37  42  43  44  45  46  47 0
 3-21G
 ****
 48  49 0
 3-21G
 ****


