%nproc=1
%NoSave
%Mem=1900MB
#P OB98/GEN NMR

erre ene a

0 1
  C      368.162    -181.917    -412.326
  O      368.279    -182.193    -413.725
  P      369.048    -181.115    -414.637
  C      370.193    -182.942    -416.127
  O      369.305    -181.835    -416.049
  C      369.871    -183.805    -417.359
  O      368.709    -184.648    -417.076
  C      369.569    -183.009    -418.638
  O      370.138    -183.757    -419.733
  C      368.058    -183.036    -418.696
  O      367.572    -182.810    -420.025
  C      367.771    -184.444    -418.146
  N      366.388    -184.601    -417.683
  C      365.433    -184.884    -418.653
  O      365.682    -184.920    -419.870
  N      364.154    -185.077    -418.198
  C      363.736    -184.928    -416.910
  O      362.575    -185.114    -416.555
  C      364.769    -184.525    -415.946
  C      366.020    -184.357    -416.369
  O      370.486    -181.087    -413.936
  O      368.343    -179.797    -414.700
  H      370.783    -181.959    -413.610
  H      367.917    -183.529    -420.604
  H      363.445    -185.310    -418.886
  H      364.462    -184.326    -414.923
  H      366.810    -184.033    -415.699
  H      367.962    -185.199    -418.912
  H      367.633    -182.271    -418.037
  H      369.989    -181.997    -418.614
  H      370.737    -184.480    -417.520
  H      370.104    -183.562    -415.226
  H      371.225    -182.576    -416.150
  P      371.588    -183.309    -420.266
  C      372.836    -185.579    -419.924
  O      372.299    -184.628    -420.811
  O      372.338    -183.032    -418.878
  O      371.578    -182.121    -421.176
  H      372.206    -183.744    -418.228
  H      373.062    -186.494    -420.464
  H      372.137    -185.820    -419.109
  H      373.770    -185.194    -419.487
  H      367.631    -182.714    -411.848
  H      367.629    -181.000    -412.187
  H      369.138    -181.831    -411.897

 3  4  5  6  7  8  9  10  11  12  13  24  28  29  30  31  32 0
 6-311+G(2d,p)
 ****
 33  34 0
 6-311+G(2d,p)
 ****
 1  2  14  15  16  17  18  19  20  21  22  23  25  26  27 0
 3-21G
 ****
 35  36  37  38  39  40  41  42  43  44  45 0
 3-21G
 ****


