%nproc=1
%NoSave
%Mem=1900MB
#P OB98/GEN NMR

erre ene a

0 1
  C     -341.272     103.468    -655.762
  O     -341.767     102.549    -656.715
  H     -340.212     103.283    -655.602
  H     -341.797     103.326    -654.811
  H     -341.406     104.496    -656.109
  P     -343.179     102.876    -657.390
  C     -344.197     100.500    -657.690
  O     -343.551     101.609    -658.315
  C     -344.542      99.444    -658.741
  O     -345.573      99.970    -659.621
  C     -343.361      99.003    -659.614
  O     -343.482      97.604    -659.888
  C     -343.598      99.764    -660.904
  O     -342.962      99.146    -662.026
  C     -345.129      99.735    -660.968
  N     -345.598     100.746    -665.865
  C     -345.227      99.585    -665.217
  N     -344.857      98.544    -665.997
  N     -345.201      99.459    -663.917
  C     -345.613     100.573    -663.265
  C     -346.013     101.784    -663.783
  C     -346.007     101.919    -665.221
  O     -346.321     102.927    -665.845
  N     -346.295     102.677    -662.774
  C     -346.038     102.011    -661.650
  N     -345.634     100.737    -661.891
  O     -342.799     104.010    -658.457
  O     -344.254     103.325    -656.457
  H     -343.143      99.692    -662.816
  H     -342.956     104.895    -658.067
  H     -345.575     100.806    -666.872
  H     -346.136     102.426    -660.655
  H     -345.516      98.759    -661.300
  H     -343.229     100.786    -660.815
  H     -344.862      98.567    -667.007
  H     -342.376      99.224    -659.173
  H     -344.607      97.676    -665.537
  H     -344.973      98.567    -658.223
  H     -345.112     100.845    -657.201
  H     -343.530     100.082    -656.921
  P     -342.530      96.596    -659.065
  C     -342.497      94.915    -661.070
  O     -342.711      95.115    -659.678
  O     -343.260      96.501    -657.637
  O     -341.118      97.057    -658.928
  H     -342.597      96.403    -656.942
  H     -342.657      93.885    -661.311
  H     -341.493      95.188    -661.319
  H     -343.180      95.522    -661.627

 6  7  8  9  10  11  12  13  14  15  26  29  33  34 0
 6-311+G(2d,p)
 ****
 36  38  39  40  41 0
 6-311+G(2d,p)
 ****
 1  2  3  4  5  16  17  18  19  20  21  22  23  24  25 0
 3-21G
 ****
 27  28  30  31  32  35  37  42  43  44  45  46  47 0
 3-21G
 ****
 48  49 0
 3-21G
 ****


