%nproc=1
%NoSave
%Mem=1900MB
#P OB98/GEN NMR

erre ene a

0 1
  C     -480.166    -537.079    -893.709
  O     -479.966    -536.776    -895.079
  H     -480.867    -537.909    -893.609
  H     -479.214    -537.366    -893.259
  H     -480.551    -536.199    -893.179
  P     -481.254    -536.303    -895.919
  C     -481.603    -533.936    -894.919
  O     -481.158    -534.706    -896.019
  C     -480.630    -532.790    -894.649
  O     -479.413    -533.279    -894.049
  C     -480.193    -532.041    -895.929
  O     -481.151    -531.101    -896.349
  C     -478.920    -531.363    -895.409
  O     -479.269    -530.217    -894.619
  C     -478.305    -532.462    -894.529
  N     -473.524    -532.823    -896.339
  C     -474.182    -531.834    -895.689
  N     -475.450    -531.810    -895.239
  C     -476.065    -532.968    -895.529
  C     -475.533    -534.076    -896.179
  C     -474.196    -533.972    -896.599
  N     -473.523    -534.960    -897.269
  N     -476.483    -535.070    -896.329
  C     -477.558    -534.589    -895.729
  N     -477.366    -533.312    -895.249
  O     -482.471    -536.540    -894.899
  O     -481.454    -537.007    -897.219
  H     -479.778    -529.617    -895.199
  H     -483.308    -536.598    -895.399
  H     -473.597    -530.908    -895.509
  H     -478.507    -535.119    -895.629
  H     -477.796    -532.059    -893.659
  H     -478.279    -531.020    -896.229
  H     -479.937    -532.750    -896.739
  H     -481.101    -532.088    -893.939
  H     -481.644    -534.566    -894.019
  H     -472.636    -534.730    -897.669
  H     -474.061    -535.762    -897.609
  H     -482.614    -533.546    -895.109
  P     -480.900    -530.367    -897.759
  C     -481.957    -532.098    -899.379
  O     -482.090    -530.857    -898.729
  O     -479.617    -531.126    -898.359
  O     -480.709    -528.894    -897.669
  H     -479.110    -530.563    -898.959
  H     -482.822    -532.279    -899.982
  H     -481.862    -532.875    -898.649
  H     -481.086    -532.084    -900.000

 6  7  8  9  10  11  12  13  14  15  25  28  32  33  34  35 0
 6-311+G(2d,p)
 ****
 36  39  40 0
 6-311+G(2d,p)
 ****
 1  2  3  4  5  16  17  18  19  20  21  22  23  24 0
 3-21G
 ****
 26  27  29  30  31  37  38  41  42  43  44  45  46  47 0
 3-21G
 ****
 48 0
 3-21G
 ****


