%nproc=1
%NoSave
%Mem=1900MB
#P OB98/GEN NMR

erre ene a

0 1
  C     -345.194     317.849    -214.302
  O     -345.265     317.506    -212.936
  H     -345.096     318.935    -214.387
  H     -346.117     317.543    -214.804
  H     -344.336     317.380    -214.795
  P     -344.956     315.998    -212.505
  C     -345.749     313.633    -213.182
  O     -345.748     315.020    -213.505
  C     -347.135     313.014    -213.355
  O     -347.671     313.375    -214.649
  C     -347.108     311.481    -213.298
  O     -347.202     310.943    -211.993
  C     -348.326     311.113    -214.138
  O     -349.516     311.058    -213.336
  C     -348.417     312.257    -215.151
  N     -349.439     311.701    -220.133
  C     -350.314     311.955    -219.094
  N     -351.624     312.029    -219.420
  N     -349.928     312.100    -217.849
  C     -348.606     311.898    -217.662
  C     -347.643     311.626    -218.615
  C     -348.066     311.536    -219.999
  O     -347.332     311.338    -220.955
  N     -346.408     311.443    -218.045
  C     -346.637     311.522    -216.747
  N     -347.942     311.878    -216.476
  O     -345.779     315.827    -211.136
  O     -343.508     315.669    -212.299
  H     -350.278     310.922    -213.933
  H     -345.313     315.197    -210.550
  H     -349.787     311.628    -221.072
  H     -345.897     311.378    -215.970
  H     -349.452     312.598    -215.278
  H     -348.204     310.125    -214.586
  H     -351.982     311.841    -220.343
  H     -346.218     311.093    -213.801
  H     -352.311     312.023    -218.664
  H     -347.817     313.430    -212.598
  H     -345.434     313.560    -212.135
  H     -345.012     313.099    -213.784
  P     -346.608     309.495    -211.658
  C     -346.896     307.072    -212.629
  O     -347.197     308.448    -212.706
  O     -347.344     309.105    -210.289
  O     -345.119     309.430    -211.530
  H     -346.768     309.282    -209.526
  H     -347.391     306.554    -213.423
  H     -347.230     306.686    -211.689
  H     -345.839     306.933    -212.717

 6  7  8  9  10  11  12  13  14  15  26  29  33  34 0
 6-311+G(2d,p)
 ****
 36  38  39  40  41 0
 6-311+G(2d,p)
 ****
 1  2  3  4  5  16  17  18  19  20  21  22  23  24  25 0
 3-21G
 ****
 27  28  30  31  32  35  37  42  43  44  45  46  47 0
 3-21G
 ****
 48  49 0
 3-21G
 ****


