%nproc=1
%NoSave
%Mem=1900MB
#P OB98/GEN NMR

erre ene a

0 1
  C       48.637     -55.785     -32.380
  O       47.926     -55.844     -33.598
  H       49.314     -54.928     -32.413
  H       49.228     -56.692     -32.237
  H       47.947     -55.652     -31.542
  P       46.903     -57.054     -33.836
  C       44.945     -56.189     -35.277
  O       46.224     -56.812     -35.270
  C       45.088     -54.682     -35.035
  O       45.917     -54.142     -36.095
  C       43.738     -53.952     -35.057
  O       43.521     -53.150     -33.900
  C       43.739     -53.262     -36.417
  O       42.934     -52.104     -36.484
  C       45.228     -53.027     -36.687
  N       45.559     -52.912     -38.106
  C       46.716     -52.213     -38.438
  O       47.485     -51.697     -37.633
  N       46.986     -52.121     -39.781
  C       46.228     -52.631     -40.791
  O       46.524     -52.518     -41.975
  C       45.004     -53.333     -40.378
  C       44.729     -53.439     -39.076
  O       45.940     -57.311     -32.726
  O       47.850     -58.318     -34.096
  H       42.019     -52.375     -36.259
  H       47.853     -58.891     -33.305
  H       47.829     -51.630     -40.033
  H       44.372     -53.739     -41.156
  H       43.835     -53.953     -38.737
  H       45.568     -52.115     -36.195
  H       43.349     -53.967     -37.161
  H       42.908     -54.668     -35.025
  H       45.618     -54.525     -34.090
  H       44.344     -56.645     -34.483
  H       44.456     -56.365     -36.241
  P       42.788     -53.636     -32.571
  C       43.189     -52.196     -30.407
  O       42.511     -52.363     -31.645
  O       43.372     -54.837     -31.905
  O       41.309     -54.036     -33.076
  H       41.012     -54.770     -32.501
  H       42.866     -51.288     -29.943
  H       44.244     -52.152     -30.581
  H       42.968     -53.023     -29.765

 6  7  8  9  10  11  12  13  14  15  16  26  31  32  33  34  35 0
 6-311+G(2d,p)
 ****
 36  37 0
 6-311+G(2d,p)
 ****
 1  2  3  4  5  17  18  19  20  21  22  23  24  25 0
 3-21G
 ****
 27  28  29  30  38  39  40  41  42  43  44  45 0
 3-21G
 ****


