%nproc=1
%NoSave
%Mem=1900MB
#P OB98/GEN NMR

erre ene a

0 1
  C       12.335      65.992    -321.734
  O       11.806      64.715    -321.440
  H       13.110      65.881    -322.498
  H       12.785      66.428    -320.839
  H       11.550      66.649    -322.119
  P       10.625      64.646    -320.347
  C       12.392      64.687    -318.437
  O       11.249      65.302    -319.017
  C       12.095      64.263    -316.995
  O       11.952      65.447    -316.174
  C       10.809      63.439    -316.859
  O       11.043      62.351    -315.960
  C        9.806      64.415    -316.271
  O        8.778      63.756    -315.533
  C       10.707      65.352    -315.455
  N       10.096      66.668    -315.272
  C        9.614      66.972    -313.994
  O        9.698      66.137    -313.087
  N        8.995      68.179    -313.784
  C        8.825      68.993    -314.778
  N        8.186      70.165    -314.510
  C        9.272      68.699    -316.153
  C        9.902      67.535    -316.329
  O       10.550      63.085    -320.002
  O        9.323      65.236    -320.782
  H        8.295      63.162    -316.151
  H        9.726      62.865    -319.503
  H        9.091      69.402    -316.954
  H       10.266      67.234    -317.306
  H       10.917      64.923    -314.465
  H        9.328      64.977    -317.081
  H       10.455      63.044    -317.809
  H       12.962      63.713    -316.610
  H        7.886      70.330    -313.556
  H       13.222      65.398    -318.447
  H        7.974      70.858    -315.214
  H       12.663      63.804    -319.026
  P       11.589      60.994    -316.627
  C        9.218      60.004    -316.998
  O       10.434      60.431    -317.598
  O       11.605      59.957    -315.409
  O       12.929      61.141    -317.275
  H       12.507      59.873    -315.047
  H        8.548      59.657    -317.757
  H        8.771      60.824    -316.475
  H        9.419      59.209    -316.310

 6  7  8  9  10  11  12  13  14  15  16  26  30  31  32  33  35 0
 6-311+G(2d,p)
 ****
 37  38 0
 6-311+G(2d,p)
 ****
 1  2  3  4  5  17  18  19  20  21  22  23  24  25 0
 3-21G
 ****
 27  28  29  34  36  39  40  41  42  43  44  45  46 0
 3-21G
 ****


