%nproc=1
%NoSave
%Mem=1900MB
#P OB98/GEN NMR

erre ene a

0 1
  C      241.981     900.835      81.620
  O      241.449     899.709      82.282
  H      241.559     900.876      80.616
  H      243.069     900.740      81.543
  H      241.725     901.760      82.154
  P      241.780     899.500      83.846
  C      242.529     897.038      83.986
  O      241.465     897.963      84.187
  C      242.322     895.808      84.873
  O      242.192     896.206      86.252
  C      241.027     895.041      84.558
  O      241.147     894.274      83.382
  C      240.868     894.236      85.840
  O      241.678     893.051      85.811
  C      241.356     895.219      86.919
  N      240.258     895.859      87.624
  C      239.412     895.021      88.335
  O      239.544     893.782      88.384
  N      238.326     895.610      88.937
  C      237.946     896.915      88.775
  O      236.855     897.349      89.119
  C      238.919     897.773      88.072
  C      239.994     897.214      87.534
  O      241.157     900.494      84.772
  O      243.380     899.564      83.904
  H      243.657     900.439      84.229
  H      241.241     892.437      85.184
  H      237.678     894.986      89.402
  H      238.696     898.833      87.992
  H      240.721     897.825      86.988
  H      242.009     894.706      87.638
  H      239.821     893.909      85.985
  H      240.184     895.743      84.471
  H      243.192     895.148      84.779
  H      243.475     897.518      84.256
  H      242.555     896.753      82.929
  P      240.047     894.386      82.228
  C      239.985     891.828      81.888
  O      240.183     893.098      81.271
  O      239.998     895.698      81.504
  O      238.659     894.113      82.992
  H      238.023     894.801      82.751
  H      240.100     891.055      81.157
  H      239.000     891.783      82.303
  H      240.707     891.693      82.666

 6  7  8  9  10  11  12  13  14  15  16  27  31  32  33  34  35 0
 6-311+G(2d,p)
 ****
 36  37 0
 6-311+G(2d,p)
 ****
 1  2  3  4  5  17  18  19  20  21  22  23  24  25 0
 3-21G
 ****
 26  28  29  30  38  39  40  41  42  43  44  45 0
 3-21G
 ****


