%nproc=1
%NoSave
%Mem=1900MB
#P OB98/GEN NMR

erre ene a

0 1
  C      231.329       3.611     -47.712
  O      230.627       4.338     -46.700
  P      231.174       5.809     -46.359
  C      232.333       5.150     -44.136
  O      232.488       5.671     -45.449
  C      233.671       5.073     -43.391
  O      233.496       4.490     -42.072
  C      234.728       4.237     -44.118
  O      236.001       4.830     -43.847
  C      234.652       2.899     -43.412
  O      235.846       2.145     -43.603
  C      234.381       3.353     -41.969
  N      233.812       2.300     -41.131
  C      234.705       1.388     -40.561
  O      235.908       1.448     -40.829
  N      234.216       0.407     -39.738
  C      232.939       0.309     -39.544
  N      232.514      -0.690     -38.719
  C      231.953       1.212     -40.169
  C      232.458       2.175     -40.938
  O      230.072       6.389     -45.354
  O      231.326       6.683     -47.562
  H      235.718       1.262     -43.190
  H      229.787       7.274     -45.643
  H      230.895       1.080     -39.994
  H      231.815       2.887     -41.438
  H      235.309       3.697     -41.493
  H      233.806       2.316     -43.795
  H      234.569       4.180     -45.199
  H      234.040       6.095     -43.251
  H      233.221      -1.282     -38.304
  H      231.892       4.152     -44.184
  H      231.544      -0.858     -38.499
  H      231.615       5.774     -43.591
  P      236.589       5.885     -44.899
  C      238.296       4.252     -45.906
  O      237.112       4.994     -46.126
  O      237.973       6.301     -44.199
  O      235.771       7.086     -45.237
  H      238.403       7.005     -44.715
  H      238.466       3.602     -46.768
  H      238.198       3.631     -45.012
  H      239.149       4.927     -45.805
  H      230.871       2.653     -47.846
  H      232.349       3.480     -47.415
  H      231.293       4.155     -48.632

 3  4  5  6  7  8  9  10  11  12  13  21  23  27  28  29  30  32 0
 6-311+G(2d,p)
 ****
 34  35 0
 6-311+G(2d,p)
 ****
 1  2  14  15  16  17  18  19  20  22  24  25  26 0
 3-21G
 ****
 31  33  36  37  38  39  40  41  42  43  44  45  46 0
 3-21G
 ****


