%nproc=1
%NoSave
%Mem=1900MB
#P OB98/GEN NMR

erre ene a

0 1
  C      393.396    -201.962    -227.634
  O      392.449    -202.965    -227.267
  P      392.940    -204.274    -226.487
  C      392.091    -206.350    -227.790
  O      393.180    -205.465    -227.538
  C      392.618    -207.681    -228.339
  O      393.405    -207.487    -229.538
  C      393.556    -208.384    -227.363
  O      392.979    -208.907    -226.181
  C      394.286    -209.361    -228.275
  O      393.535    -210.554    -228.492
  C      394.396    -208.545    -229.587
  N      395.738    -207.994    -229.802
  C      396.707    -208.905    -230.206
  O      396.499    -210.111    -230.322
  N      397.954    -208.387    -230.419
  C      398.331    -207.083    -230.245
  O      399.477    -206.678    -230.435
  C      397.258    -206.169    -229.804
  C      396.035    -206.666    -229.598
  O      392.148    -204.645    -225.279
  O      394.444    -203.875    -226.065
  H      393.391    -210.971    -227.619
  H      394.590    -204.203    -225.157
  H      398.684    -209.032    -230.702
  H      397.525    -205.119    -229.645
  H      395.231    -206.003    -229.270
  H      394.141    -209.174    -230.447
  H      395.253    -209.659    -227.854
  H      394.304    -207.645    -227.027
  H      391.761    -208.313    -228.600
  H      391.403    -205.892    -228.508
  H      391.530    -206.490    -226.864
  P      392.983    -208.140    -224.785
  C      394.190    -209.778    -223.163
  O      394.281    -208.603    -223.948
  O      391.691    -208.046    -224.034
  O      393.423    -206.656    -225.241
  H      392.979    -206.000    -224.649
  H      395.148    -209.926    -222.658
  H      393.982    -210.647    -223.807
  H      393.401    -209.673    -222.414
  H      392.894    -201.167    -228.144
  H      394.135    -202.388    -228.280
  H      393.869    -201.579    -226.754

 3  4  5  6  7  8  9  10  11  12  13  23  28  29  30  31  32 0
 6-311+G(2d,p)
 ****
 33  34 0
 6-311+G(2d,p)
 ****
 1  2  14  15  16  17  18  19  20  21  22  24  25  26  27 0
 3-21G
 ****
 35  36  37  38  39  40  41  42  43  44  45 0
 3-21G
 ****


