%nproc=1
%NoSave
%Mem=1900MB
#P OB98/GEN NMR

erre ene a

0 1
  C      253.242    -620.622     198.043
  O      252.460    -621.561     198.751
  H      253.585    -619.855     198.740
  H      252.648    -620.146     197.259
  H      254.113    -621.114     197.602
  P      251.764    -622.719     197.880
  C      251.914    -624.239     199.993
  O      251.091    -623.670     198.985
  C      251.060    -625.001     200.999
  O      250.078    -625.820     200.315
  C      251.834    -625.967     201.889
  O      252.530    -625.327     202.943
  C      250.694    -626.825     202.404
  O      249.950    -626.093     203.398
  C      249.865    -627.014     201.113
  N      250.246    -628.215     200.360
  C      249.937    -629.447     200.950
  O      249.380    -629.499     202.045
  N      250.306    -630.600     200.293
  C      250.903    -630.531     199.146
  N      251.243    -631.705     198.548
  C      251.232    -629.254     198.486
  C      250.879    -628.150     199.139
  O      253.004    -623.593     197.370
  O      250.841    -622.260     196.798
  H      249.527    -625.351     202.932
  H      252.674    -624.425     196.942
  H      251.743    -629.244     197.531
  H      251.089    -627.173     198.715
  H      248.791    -627.068     201.340
  H      251.023    -627.752     202.872
  H      252.513    -626.597     201.303
  H      250.512    -624.265     201.595
  H      251.057    -632.560     199.055
  H      252.454    -623.426     200.496
  H      251.838    -631.754     197.732
  H      252.643    -624.920     199.543
  P      254.125    -625.527     203.007
  C      254.172    -623.730     204.887
  O      254.602    -625.013     204.447
  O      254.671    -624.407     202.006
  O      254.598    -626.893     202.626
  H      255.475    -624.710     201.543
  H      254.572    -623.534     205.860
  H      253.103    -623.707     204.929
  H      254.518    -622.984     204.203

 6  7  8  9  10  11  12  13  14  15  16  26  30  31  32  33  35 0
 6-311+G(2d,p)
 ****
 37  38 0
 6-311+G(2d,p)
 ****
 1  2  3  4  5  17  18  19  20  21  22  23  24  25 0
 3-21G
 ****
 27  28  29  34  36  39  40  41  42  43  44  45  46 0
 3-21G
 ****


