%nproc=1
%NoSave
%Mem=1900MB
#P OB98/GEN NMR

erre ene a

0 1
  C     -650.951      88.200      31.574
  O     -651.931      87.778      30.648
  H     -651.190      87.760      32.547
  H     -650.975      89.285      31.663
  H     -649.952      87.867      31.286
  P     -651.666      88.025      29.083
  C     -651.894      85.609      28.207
  O     -651.011      86.682      28.509
  C     -651.349      84.281      28.748
  O     -651.249      84.364      30.200
  C     -652.240      83.059      28.398
  O     -651.363      81.935      28.271
  C     -653.083      82.937      29.656
  O     -653.681      81.667      29.755
  C     -652.047      83.275      30.733
  N     -652.664      83.639      32.010
  C     -653.311      82.622      32.704
  O     -653.401      81.468      32.277
  N     -653.899      82.962      33.890
  C     -653.962      84.239      34.398
  O     -654.532      84.505      35.464
  C     -653.290      85.281      33.603
  C     -652.693      84.952      32.475
  O     -650.927      89.279      28.741
  O     -653.129      87.998      28.416
  H     -654.236      81.612      30.555
  H     -653.155      88.581      27.643
  H     -654.365      82.244      34.413
  H     -653.329      86.305      33.981
  H     -652.193      85.692      31.862
  H     -651.375      82.434      30.909
  H     -653.885      83.686      29.652
  H     -652.821      83.191      27.498
  H     -650.325      84.149      28.363
  H     -652.001      85.553      27.124
  H     -652.877      85.816      28.662
  P     -650.094      81.942      27.300
  C     -648.409      80.436      28.537
  O     -648.755      81.778      28.170
  O     -650.047      83.094      26.351
  O     -650.184      80.561      26.487
  H     -649.765      80.660      25.609
  H     -647.506      80.445      29.111
  H     -648.264      79.851      27.653
  H     -649.198      80.011      29.121

 6  7  8  9  10  11  12  13  14  15  16  26  31  32  33  34  35 0
 6-311+G(2d,p)
 ****
 36  37 0
 6-311+G(2d,p)
 ****
 1  2  3  4  5  17  18  19  20  21  22  23  24  25 0
 3-21G
 ****
 27  28  29  30  38  39  40  41  42  43  44  45 0
 3-21G
 ****


