%nproc=1
%NoSave
%Mem=1900MB
#P OB98/GEN NMR

erre ene a

0 1
  C      187.850      29.036     -56.731
  O      186.666      28.342     -56.390
  H      187.618      30.083     -56.939
  H      188.540      28.988     -55.885
  H      188.327      28.579     -57.602
  P      185.585      28.141     -57.558
  C      183.638      29.577     -56.609
  O      184.689      29.475     -57.558
  C      183.150      31.022     -56.506
  O      182.079      31.086     -55.528
  C      184.240      32.005     -56.067
  O      184.076      33.229     -56.786
  C      183.945      32.227     -54.594
  O      184.441      33.475     -54.125
  C      182.424      32.106     -54.569
  N      178.762      32.988     -51.124
  C      178.932      33.421     -52.390
  N      179.936      33.133     -53.246
  C      180.799      32.266     -52.687
  C      180.758      31.738     -51.408
  C      179.681      32.141     -50.600
  N      179.519      31.736     -49.296
  N      181.843      30.911     -51.190
  C      182.524      30.940     -52.319
  N      181.934      31.747     -53.250
  O      184.609      27.032     -56.933
  O      186.129      27.725     -58.882
  H      185.338      33.607     -54.496
  H      185.014      26.151     -57.033
  H      178.165      34.093     -52.766
  H      183.446      30.407     -52.508
  H      181.924      33.039     -54.859
  H      184.409      31.429     -54.000
  H      185.248      31.620     -56.231
  H      182.716      31.315     -57.469
  H      184.007      29.246     -55.633
  H      178.749      32.118     -48.772
  H      180.226      31.154     -48.870
  H      182.810      28.929     -56.917
  P      185.237      33.620     -57.823
  C      186.233      35.726     -56.688
  O      186.414      34.357     -57.019
  O      184.578      34.790     -58.693
  O      185.675      32.480     -58.685
  H      184.697      34.606     -59.643
  H      187.092      36.081     -56.157
  H      185.364      35.832     -56.072
  H      186.107      36.296     -57.585

 6  7  8  9  10  11  12  13  14  15  25  28  32  33  34  35 0
 6-311+G(2d,p)
 ****
 36  39  40 0
 6-311+G(2d,p)
 ****
 1  2  3  4  5  16  17  18  19  20  21  22  23  24 0
 3-21G
 ****
 26  27  29  30  31  37  38  41  42  43  44  45  46  47 0
 3-21G
 ****
 48 0
 3-21G
 ****


