%nproc=1
%NoSave
%Mem=1900MB
#P OB98/GEN NMR

erre ene a

0 1
  C     -579.912    -413.112      69.818
  O     -578.736    -413.880      70.026
  H     -580.755    -413.628      70.291
  H     -580.110    -413.032      68.748
  H     -579.819    -412.119      70.259
  P     -577.336    -413.141      69.781
  C     -576.468    -414.098      72.031
  O     -576.242    -413.945      70.642
  C     -575.642    -415.260      72.579
  O     -576.249    -416.516      72.145
  C     -574.177    -415.265      72.111
  O     -573.343    -415.744      73.191
  C     -574.179    -416.324      71.011
  O     -572.884    -416.883      70.790
  C     -575.197    -417.311      71.590
  N     -573.736    -421.024      68.525
  C     -573.089    -420.433      69.590
  N     -571.822    -420.841      69.855
  N     -573.627    -419.497      70.343
  C     -574.896    -419.193      69.980
  C     -575.650    -419.703      68.953
  C     -575.034    -420.720      68.118
  O     -575.548    -421.268      67.151
  N     -576.870    -419.087      68.881
  C     -576.852    -418.197      69.854
  N     -575.678    -418.216      70.548
  O     -577.511    -411.766      70.585
  O     -576.982    -412.908      68.349
  H     -572.290    -416.167      70.479
  H     -577.819    -411.065      69.977
  H     -573.274    -421.727      67.977
  H     -577.646    -417.502      70.089
  H     -574.770    -417.940      72.375
  H     -574.532    -415.887      70.077
  H     -571.359    -421.569      69.342
  H     -573.813    -414.293      71.768
  H     -571.356    -420.446      70.660
  H     -575.695    -415.244      73.674
  H     -577.532    -414.306      72.200
  H     -576.204    -413.166      72.550
  P     -571.754    -415.604      73.023
  C     -571.541    -414.197      75.189
  O     -571.114    -415.338      74.468
  O     -571.574    -414.206      72.270
  O     -571.136    -416.722      72.243
  H     -570.821    -414.245      71.664
  H     -571.028    -414.156      76.127
  H     -572.595    -414.258      75.361
  H     -571.322    -413.315      74.624

 6  7  8  9  10  11  12  13  14  15  26  29  33  34 0
 6-311+G(2d,p)
 ****
 36  38  39  40  41 0
 6-311+G(2d,p)
 ****
 1  2  3  4  5  16  17  18  19  20  21  22  23  24  25 0
 3-21G
 ****
 27  28  30  31  32  35  37  42  43  44  45  46  47 0
 3-21G
 ****
 48  49 0
 3-21G
 ****


