%nproc=1
%NoSave
%Mem=1900MB
#P OB98/GEN NMR

erre ene a

0 1
  C      -61.407     454.114     -34.301
  O      -60.420     453.127     -34.041
  P      -60.685     451.571     -34.351
  C      -59.294     451.785     -36.531
  O      -60.536     451.427     -35.951
  C      -58.841     450.718     -37.536
  O      -59.902     450.530     -38.509
  C      -57.559     451.068     -38.304
  O      -56.845     449.850     -38.522
  C      -58.093     451.621     -39.615
  O      -57.137     451.553     -40.664
  C      -59.329     450.735     -39.818
  N      -60.306     451.330     -40.732
  C      -60.307     450.895     -42.058
  O      -59.496     450.048     -42.450
  N      -61.232     451.420     -42.930
  C      -62.029     452.368     -42.530
  N      -62.966     452.812     -43.405
  C      -61.983     452.938     -41.167
  C      -61.125     452.364     -40.327
  O      -61.953     451.025     -33.795
  O      -59.365     450.834     -33.835
  H      -57.584     451.796     -41.505
  H      -59.399     450.625     -32.864
  H      -62.649     453.750     -40.889
  H      -61.040     452.698     -39.304
  H      -59.031     449.744     -40.192
  H      -58.379     452.670     -39.481
  H      -56.922     451.769     -37.759
  H      -58.720     449.771     -36.995
  H      -63.079     452.289     -44.266
  H      -58.543     451.855     -35.731
  H      -63.798     453.293     -43.081
  H      -59.378     452.767     -37.013
  P      -55.248     449.917     -38.681
  C      -54.907     448.900     -36.318
  O      -54.606     449.950     -37.214
  O      -55.038     451.434     -39.176
  O      -54.636     448.973     -39.670
  H      -54.207     451.494     -39.684
  H      -54.377     449.085     -35.375
  H      -54.579     447.941     -36.720
  H      -55.982     448.873     -36.109
  H      -61.030     455.077     -34.025
  H      -62.286     453.898     -33.731
  H      -61.649     454.111     -35.343

 3  4  5  6  7  8  9  10  11  12  13  23  27  28  29  30  32 0
 6-311+G(2d,p)
 ****
 34  35 0
 6-311+G(2d,p)
 ****
 1  2  14  15  16  17  18  19  20  21  22  24  25  26 0
 3-21G
 ****
 31  33  36  37  38  39  40  41  42  43  44  45  46 0
 3-21G
 ****


