%nproc=1
%NoSave
%Mem=1900MB
#P OB98/GEN NMR

erre ene a

0 1
  C       19.736     -49.587      11.062
  O       20.329     -48.779      10.068
  H       20.253     -49.412      12.008
  H       19.831     -50.644      10.802
  H       18.681     -49.326      11.186
  P       19.795     -48.891       8.562
  C       20.132     -46.409       7.939
  O       20.547     -47.752       7.717
  C       20.808     -45.847       9.196
  O       22.235     -45.810       8.950
  C       20.337     -44.425       9.531
  O       19.883     -44.292      10.875
  C       21.506     -43.557       9.080
  O       21.611     -42.323       9.756
  C       22.713     -44.485       9.247
  N       23.845     -44.142       8.388
  C       24.845     -43.344       8.936
  O       24.857     -42.918      10.088
  N       25.885     -43.038       8.095
  C       26.009     -43.426       6.795
  O       26.966     -43.122       6.093
  C       24.907     -44.243       6.265
  C       23.892     -44.557       7.072
  O       18.312     -48.907       8.404
  O       20.459     -50.241       8.014
  H       21.649     -42.521      10.716
  H       19.781     -50.943       7.973
  H       26.623     -42.474       8.485
  H       24.968     -44.558       5.232
  H       23.063     -45.160       6.713
  H       23.068     -44.473      10.279
  H       21.377     -43.330       8.015
  H       19.452     -44.160       8.940
  H       20.634     -46.538      10.028
  H       19.045     -46.408       8.061
  H       20.395     -45.795       7.072
  P       18.401     -44.594      11.377
  C       19.189     -44.389      13.877
  O       18.246     -44.046      12.871
  O       17.888     -45.968      11.108
  O       17.494     -43.566      10.527
  H       16.634     -44.011      10.386
  H       18.910     -43.926      14.800
  H       20.161     -44.048      13.586
  H       19.207     -45.452      14.002

 6  7  8  9  10  11  12  13  14  15  16  26  31  32  33  34  35 0
 6-311+G(2d,p)
 ****
 36  37 0
 6-311+G(2d,p)
 ****
 1  2  3  4  5  17  18  19  20  21  22  23  24  25 0
 3-21G
 ****
 27  28  29  30  38  39  40  41  42  43  44  45 0
 3-21G
 ****


