%nproc=1
%NoSave
%Mem=1900MB
#P OB98/GEN NMR

erre ene a

0 1
  C     -222.020     184.354     183.338
  O     -221.926     183.002     183.781
  P     -220.902     182.654     184.964
  C     -222.361     181.512     186.759
  O     -221.695     182.704     186.359
  C     -223.859     181.589     186.417
  O     -224.013     181.561     184.973
  C     -224.704     180.425     186.947
  O     -225.268     180.538     188.250
  C     -225.872     180.433     185.965
  O     -226.845     181.414     186.373
  C     -225.235     180.863     184.647
  N     -227.208     177.691     181.153
  C     -227.748     178.713     181.853
  N     -227.153     179.507     182.767
  C     -225.863     179.173     182.921
  C     -225.176     178.160     182.276
  C     -225.904     177.392     181.352
  N     -225.358     176.344     180.648
  N     -223.864     178.113     182.700
  C     -223.770     179.070     183.601
  N     -224.946     179.748     183.761
  O     -219.602     183.385     184.938
  O     -220.669     181.079     184.766
  H     -227.299     181.046     187.154
  H     -219.735     180.869     184.963
  H     -228.798     178.917     181.657
  H     -222.875     179.304     184.159
  H     -225.866     181.560     184.086
  H     -226.394     179.472     185.929
  H     -224.158     179.478     186.865
  H     -224.263     182.541     186.785
  H     -222.237     181.367     187.835
  H     -225.961     175.816     180.037
  H     -224.403     176.070     180.826
  H     -221.863     180.677     186.268
  P     -224.347     180.708     189.548
  C     -225.575     182.830     190.458
  O     -224.403     182.267     189.916
  O     -222.972     180.149     189.426
  O     -225.236     180.037     190.697
  H     -226.042     180.529     190.919
  H     -225.343     183.831     190.833
  H     -225.955     182.224     191.282
  H     -226.338     182.915     189.677
  H     -222.741     184.422     182.550
  H     -221.066     184.678     182.978
  H     -222.324     184.976     184.154

 3  4  5  6  7  8  9  10  11  12  22  25  29  30  31  32 0
 6-311+G(2d,p)
 ****
 33  36  37 0
 6-311+G(2d,p)
 ****
 1  2  13  14  15  16  17  18  19  20  21  23  24  26 0
 3-21G
 ****
 27  28  34  35  38  39  40  41  42  43  44  45  46  47  48 0
 3-21G
 ****


