%nproc=1
%NoSave
%Mem=1900MB
#P OB98/GEN NMR

erre ene a

0 1
  C      -18.148     340.467     276.154
  O      -18.031     339.733     277.379
  P      -18.338     340.516     278.745
  C      -18.135     339.771     281.255
  O      -17.690     339.625     279.910
  C      -17.768     338.530     282.061
  O      -18.629     337.419     281.713
  C      -16.347     338.031     281.833
  O      -15.392     338.864     282.482
  C      -16.445     336.617     282.388
  O      -16.337     336.632     283.825
  C      -17.880     336.207     281.972
  N      -17.906     335.310     280.827
  C      -18.329     334.004     281.082
  O      -18.644     333.611     282.205
  N      -18.366     333.164     279.996
  C      -17.993     333.480     278.723
  O      -18.053     332.686     277.795
  C      -17.506     334.854     278.525
  C      -17.481     335.694     279.568
  O      -19.919     340.277     278.890
  O      -17.913     341.948     278.706
  H      -20.199     339.403     278.571
  H      -15.504     337.095     284.033
  H      -18.684     332.221     280.159
  H      -17.175     335.136     277.529
  H      -17.122     336.711     279.440
  H      -18.390     335.704     282.808
  H      -15.656     335.959     282.007
  H      -16.134     337.992     280.760
  H      -17.917     338.761     283.131
  H      -19.220     339.907     281.271
  H      -17.683     340.672     281.683
  P      -14.597     339.910     281.553
  C      -12.734     341.676     282.069
  O      -13.394     340.487     282.444
  O      -15.647     341.117     281.478
  O      -14.210     339.350     280.220
  H      -16.044     341.328     282.345
  H      -12.218     342.077     282.940
  H      -13.446     342.425     281.699
  H      -11.998     341.457     281.286
  H      -17.916     339.825     275.330
  H      -17.467     341.292     276.166
  H      -19.148     340.832     276.051

 3  4  5  6  7  8  9  10  11  12  13  24  28  29  30  31  32 0
 6-311+G(2d,p)
 ****
 33  34 0
 6-311+G(2d,p)
 ****
 1  2  14  15  16  17  18  19  20  21  22  23  25  26  27 0
 3-21G
 ****
 35  36  37  38  39  40  41  42  43  44  45 0
 3-21G
 ****


